data/inputs/nesta_case1951_rte.m
%%%%%%%%%%%%%%%%%%%%%%%%%%%%%%%%%%%%%%%%%%%%%%%%%%%%%%%%%%%%%%%%%%%%%%%%%%%
%%%%                                                                  %%%%%
%%%%      NICTA Energy System Test Case Archive (NESTA) - v0.7.0      %%%%%
%%%%              Optimal Power Flow - Typical Operation              %%%%%
%%%%                         05 - June - 2017                         %%%%%
%%%%                                                                  %%%%%
%%%%%%%%%%%%%%%%%%%%%%%%%%%%%%%%%%%%%%%%%%%%%%%%%%%%%%%%%%%%%%%%%%%%%%%%%%%
%
%CASE1951RTE
%   AC Power flow data for French system.
%   Please see CASEFORMAT for details on the case file format.
%
%   This case accurately represents the size and complexity of French
%   very high voltage transmission network.
%   Part of this data was sampled in the offline platform of iTesla.
%   These data can be used to validate mathematical methods and tools.
%   These data should NOT be used for operation
%   nor planning of the French or European grids.
%
%   When publishing results using this data, please cite:
%     C. Josz, S. Fliscounakis, J. Maeght, and P. Panciatici,
%     "AC Power Flow Data in MATPOWER and QCQP Format: iTesla, RTE Snapshots, and PEGASE"
%     http://arxiv.org/abs/1603.01533
%
%   Contacts (primary contact for this file : Jean Maeght):
%   Cédric Josz, Stéphane Fliscounakis, Jean Maeght, Patrick Panciatici
%   firstname.lastname@rte-france.com
%   Réseau de Transport d'Electricité (French Transmission System Operator)
%   Département Expertise Système, Immeuble "Le Colbert"
%   9 rue de la Porte de Buc, 78000 Versailles Cedex, France
%   March 4th, 2016
%
function mpc = nesta_case1951_rte
mpc.version = '2';
mpc.baseMVA = 100.0;

%% bus data
%	bus_i	type	Pd	Qd	Gs	Bs	area	Vm	Va	baseKV	zone	Vmax	Vmin
mpc.bus = [
	1	 1	 36.4	 19.5	 0.0	 0.0	 1	    1.06151	  -13.05228	 225.0	 1	    1.08889	    0.88889;
	2	 1	 0.0	 0.0	 0.0	 0.0	 1	    1.09842	   -0.31434	 380.0	 1	    1.10263	    1.04841;
	3	 1	 245.2	 16.4	 0.0	 0.0	 1	    1.06354	  -12.43241	 225.0	 1	    1.08444	    1.00444;
	4	 1	 0.0	 0.0	 0.0	 0.0	 1	    1.06787	   -2.09604	 150.0	 1	    1.10667	    0.90000;
	5	 1	 51.8	 13.5	 0.0	 0.0	 1	    1.08853	   -3.42044	 225.0	 1	    1.08889	    0.93333;
	6	 1	 36.6	 11.6	 0.0	 0.0	 1	    1.08231	   -4.64974	 225.0	 1	    1.08889	    0.93333;
	7	 1	 0.0	 0.0	 0.0	 0.0	 1	    1.09574	   -3.29292	 380.0	 1	    1.10526	    1.03947;
	8	 1	 0.0	 0.0	 0.0	 0.0	 1	    1.08893	   -3.96208	 380.0	 1	    1.10526	    1.03947;
	9	 1	 0.0	 0.0	 0.0	 0.0	 1	    1.08703	  -18.54657	 225.0	 1	    1.09035	    1.00444;
	10	 1	 193.4	 48.9	 0.0	 0.0	 1	    1.05411	   -8.92750	 225.0	 1	    1.08889	    0.93333;
	11	 1	 57.7	 14.6	 0.0	 0.0	 1	    1.07915	  -19.64612	 225.0	 1	    1.08889	    1.00444;
	12	 1	 27.8	 24.4	 0.0	 0.0	 1	    1.08578	  -16.14011	 225.0	 1	    1.08889	    1.00444;
	13	 1	 177.5	 52.5	 0.0	 0.0	 1	    1.07893	  -19.64786	 225.0	 1	    1.08889	    1.00444;
	14	 1	 75.8	 7.3	 0.0	 0.0	 1	    1.07199	   -9.45131	 225.0	 1	    1.08252	    0.95000;
	15	 1	 0.0	 0.0	 0.0	 0.0	 1	    1.08889	   -4.40204	 225.0	 1	    1.08889	    1.00444;
	16	 1	 0.0	 0.0	 0.0	 0.0	 1	    1.08889	   -4.40204	 225.0	 1	    1.08889	    1.00444;
	17	 1	 66.2	 0.9	 0.0	 0.0	 1	    1.07210	   -9.51171	 225.0	 1	    1.08889	    0.88889;
	18	 1	 12.3	 7.1	 0.0	 0.0	 1	    1.07515	   -4.99570	 225.0	 1	    1.09633	    0.98667;
	19	 1	 67.9	 23.0	 0.0	 0.0	 1	    1.06737	  -18.10991	 225.0	 1	    1.08889	    1.00444;
	20	 1	 29.2	 7.2	 0.0	 0.0	 1	    1.06744	  -18.10721	 225.0	 1	    1.08889	    1.00444;
	21	 1	 77.8	 31.2	 0.0	 0.0	 1	    1.07437	  -15.80395	 225.0	 1	    1.08889	    1.00444;
	22	 1	 105.6	 22.8	 0.0	 0.0	 1	    1.07116	  -10.19889	 225.0	 1	    1.08889	    0.98667;
	23	 1	 41.1	 2.7	 0.0	 0.0	 1	    1.06064	  -11.78553	 225.0	 1	    1.08889	    0.88889;
	25	 1	 56.2	 8.1	 0.0	 0.0	 1	    1.08164	  -20.62569	 225.0	 1	    1.08444	    1.00889;
	26	 1	 29.3	 6.4	 0.0	 0.0	 1	    1.08197	  -20.58001	 225.0	 1	    1.08444	    1.00889;
	27	 1	 102.1	 38.0	 0.0	 0.0	 1	    1.05205	   -8.01303	 225.0	 1	    1.08889	    0.93333;
	28	 1	 172.1	 40.0	 0.0	 0.0	 1	    1.07477	  -16.06251	 225.0	 1	    1.08889	    1.00444;
	29	 1	 0.0	 0.0	 0.0	 0.0	 1	    1.09863	   -0.27541	 380.0	 1	    1.10526	    1.04842;
	30	 1	 0.0	 0.0	 0.0	 0.0	 1	    1.09865	   -0.27360	 380.0	 1	    1.10526	    1.04842;
	31	 1	 36.2	 31.7	 0.0	 0.0	 1	    1.08160	   -4.52739	 225.0	 1	    1.08444	    1.00889;
	33	 1	 133.2	 20.1	 0.0	 0.0	 1	    1.07980	   -7.95013	 225.0	 1	    1.08444	    1.00889;
	34	 1	 89.4	 29.6	 0.0	 0.0	 1	    1.04087	  -19.10593	 225.0	 1	    1.08889	    1.00444;
	2013	 1	 0.0	 0.0	 0.0	 0.0	 1	    1.08031	  -19.46926	 225.0	 1	    1.08889	    1.00444;
	35	 1	 10.3	 -0.4	 0.0	 0.0	 1	    1.07317	   -5.32490	 150.0	 1	    1.08000	    0.96667;
	36	 1	 22.3	 6.7	 0.0	 80.0	 1	    1.06760	  -10.62679	 225.0	 1	    1.09212	    1.00000;
	37	 1	 0.0	 0.0	 0.0	 0.0	 1	    1.07427	   -7.42405	 380.0	 1	    1.10526	    1.04785;
	38	 1	 144.2	 18.9	 0.0	 0.0	 1	    1.04846	  -12.41671	 225.0	 1	    1.08889	    0.98667;
	39	 1	 117.8	 31.5	 0.0	 0.0	 1	    1.07299	   -9.26812	 225.0	 1	    1.08889	    0.96889;
	40	 1	 194.8	 53.6	 0.0	 0.0	 1	    1.08747	   -5.91400	 380.0	 1	    1.10526	    1.00000;
	41	 1	 64.7	 12.6	 0.0	 0.0	 1	    1.07525	   -7.55588	 225.0	 1	    1.08889	    0.93333;
	42	 1	 44.6	 15.6	 0.0	 0.0	 1	    1.06956	  -10.57365	 225.0	 1	    1.08889	    0.88889;
	43	 1	 46.9	 11.7	 0.0	 0.0	 1	    1.06971	  -10.57884	 225.0	 1	    1.08889	    0.88889;
	44	 1	 381.3	 62.5	 0.0	 0.0	 1	    1.07066	  -20.70232	 225.0	 1	    1.08496	    1.00444;
	45	 1	 161.5	 -38.5	 0.0	 0.0	 1	    1.07984	  -17.76528	 225.0	 1	    1.08889	    1.00444;
	46	 2	 0.0	 0.0	 0.0	 0.0	 1	    1.10668	   -6.17352	 150.0	 1	    1.10843	    0.90000;
	47	 1	 0.0	 0.0	 0.0	 0.0	 1	    1.08778	  -18.34770	 225.0	 1	    1.08889	    1.00444;
	48	 1	 0.0	 0.0	 0.0	 0.0	 1	    1.08778	  -18.34770	 225.0	 1	    1.08889	    1.00444;
	49	 1	 123.5	 43.4	 0.0	 0.0	 1	    1.08777	  -18.34770	 225.0	 1	    1.08889	    1.00444;
	50	 1	 10.0	 3.7	 0.0	 0.0	 1	    1.07488	  -16.62312	 225.0	 1	    1.08889	    1.00444;
	51	 1	 0.0	 0.0	 0.0	 0.0	 1	    1.08606	   -9.51786	 225.0	 1	    1.08889	    1.00000;
	52	 1	 74.6	 28.0	 0.0	 0.0	 1	    1.05814	  -12.27658	 225.0	 1	    1.08889	    0.88889;
	53	 1	 160.2	 38.2	 0.0	 0.0	 1	    1.07653	   -5.16468	 225.0	 1	    1.08889	    0.96889;
	54	 1	 0.0	 0.0	 0.0	 0.0	 1	    1.09302	   -1.47788	 380.0	 1	    1.10526	    1.00000;
	55	 1	 31.0	 11.0	 0.0	 0.0	 1	    1.07982	   -6.38827	 225.0	 1	    1.08444	    1.00889;
	56	 1	 14.7	 -1.0	 0.0	 0.0	 1	    1.08015	   -6.37315	 225.0	 1	    1.08444	    1.00889;
	1827	 1	 201.2	 11.7	 0.0	 0.0	 1	    1.06316	  -20.18335	 225.0	 1	    1.08889	    1.00444;
	57	 1	 57.0	 3.0	 0.0	 0.0	 1	    1.07914	   -7.50996	 225.0	 1	    1.08945	    0.93333;
	58	 2	 0.0	 0.0	 0.0	 0.0	 1	    1.10521	   -6.38056	 150.0	 1	    1.10862	    0.90000;
	59	 1	 55.4	 19.7	 0.0	 0.0	 1	    1.08381	   -3.86789	 225.0	 1	    1.08444	    1.00889;
	60	 1	 55.7	 41.6	 0.0	 0.0	 1	    1.08346	   -3.86478	 225.0	 1	    1.08444	    1.00889;
	61	 1	 0.0	 0.0	 0.0	 0.0	 1	    1.08401	   -4.43881	 225.0	 1	    1.08889	    0.97778;
	62	 1	 16.4	 4.9	 0.0	 0.0	 1	    1.08682	   -9.76529	 225.0	 1	    1.08889	    0.88889;
	63	 1	 1.6	 12.7	 0.0	 0.0	 1	    1.08889	   -2.16429	 225.0	 1	    1.08889	    0.93333;
	64	 1	 29.7	 12.0	 0.0	 0.0	 1	    1.08437	  -16.43145	 225.0	 1	    1.08889	    1.00444;
	65	 1	 54.7	 13.6	 0.0	 0.0	 1	    1.08645	  -18.63341	 225.0	 1	    1.08889	    1.00444;
	66	 1	 -21.9	 -5.1	 0.0	 0.0	 1	    1.08636	   -9.80643	 225.0	 1	    1.08889	    1.00000;
	67	 1	 29.2	 -2.5	 0.0	 0.0	 1	    1.08203	  -11.60871	 225.0	 1	    1.08889	    0.98667;
	68	 1	 0.0	 0.0	 0.0	 80.0	 1	    1.08057	  -10.38045	 225.0	 1	    1.08889	    0.88889;
	69	 1	 0.0	 0.0	 0.0	 0.0	 1	    1.06406	  -11.24507	 225.0	 1	    1.08889	    0.88889;
	70	 1	 0.0	 0.0	 0.0	 0.0	 1	    1.08585	   -6.95409	 380.0	 1	    1.10526	    1.01316;
	71	 1	 76.3	 14.3	 0.0	 0.0	 1	    1.06644	  -18.30140	 225.0	 1	    1.08889	    1.00444;
	72	 1	 29.0	 5.0	 0.0	 0.0	 1	    1.08470	  -16.95429	 225.0	 1	    1.08889	    1.00444;
	73	 1	 0.0	 0.0	 0.0	 0.0	 1	    1.07610	   -5.28860	 225.0	 1	    1.08889	    0.97778;
	74	 1	 0.0	 0.0	 0.0	 0.0	 1	    1.07611	   -5.28800	 225.0	 1	    1.08889	    0.97778;
	75	 1	 182.4	 31.2	 0.0	 0.0	 1	    1.07352	   -5.88685	 225.0	 1	    1.08444	    1.00889;
	76	 1	 0.0	 0.0	 0.0	 0.0	 1	    1.07728	  -16.43987	 225.0	 1	    1.08444	    1.00444;
	77	 1	 0.0	 0.0	 0.0	 0.0	 1	    1.09478	  -10.33222	 380.0	 1	    1.10263	    1.04211;
	78	 1	 116.1	 17.6	 0.0	 0.0	 1	    1.07695	  -16.50001	 225.0	 1	    1.08444	    1.00444;
	79	 1	 -7.4	 0.9	 0.0	 0.0	 1	    1.08677	  -15.97615	 225.0	 1	    1.08936	    1.00444;
	80	 1	 14.0	 12.6	 0.0	 0.0	 1	    1.08663	  -15.98625	 225.0	 1	    1.08936	    1.00444;
	81	 1	 48.7	 2.9	 0.0	 0.0	 1	    1.08308	   -5.64717	 225.0	 1	    1.08889	    0.88889;
	82	 1	 27.9	 3.3	 0.0	 0.0	 1	    1.06408	  -11.02973	 225.0	 1	    1.08124	    0.95000;
	83	 1	 61.9	 19.7	 0.0	 0.0	 1	    1.08016	   -5.08161	 225.0	 1	    1.08889	    0.88889;
	84	 1	 158.1	 -16.5	 0.0	 0.0	 1	    1.05493	  -11.40750	 225.0	 1	    1.08889	    1.00000;
	85	 1	 0.0	 0.0	 0.0	 0.0	 1	    1.04527	   -8.76726	 225.0	 1	    1.08889	    1.00000;
	86	 1	 403.7	 124.8	 0.0	 0.0	 1	    1.08402	   -8.71344	 380.0	 1	    1.10526	    1.05070;
	87	 1	 108.6	 44.4	 0.0	 0.0	 1	    1.06148	  -10.16715	 225.0	 1	    1.08889	    1.00000;
	88	 1	 140.7	 36.8	 0.0	 0.0	 1	    1.07877	  -11.12314	 225.0	 1	    1.08889	    1.00000;
	89	 2	 0.0	 0.0	 0.0	 0.0	 1	    1.03441	  -11.00902	 150.0	 1	    1.10000	    0.90000;
	90	 1	 56.6	 23.2	 0.0	 0.0	 1	    1.04891	  -12.67788	 225.0	 1	    1.08889	    0.98667;
	91	 1	 12.5	 6.1	 0.0	 0.0	 1	    1.07833	   -4.74234	 225.0	 1	    1.08444	    1.00889;
	92	 1	 0.0	 0.0	 0.0	 0.0	 1	    1.10033	   -1.51626	 380.0	 1	    1.10526	    1.04211;
	93	 1	 0.0	 0.0	 0.0	 0.0	 1	    1.10032	   -1.57499	 380.0	 1	    1.10526	    1.04211;
	96	 1	 12.7	 0.6	 0.0	 0.0	 1	    1.05904	  -10.51394	 225.0	 1	    1.08889	    1.00000;
	97	 1	 18.3	 11.1	 0.0	 0.0	 1	    1.06851	  -15.85174	 225.0	 1	    1.08889	    1.00444;
	98	 1	 90.8	 9.6	 0.0	 0.0	 1	    1.08438	   -9.61908	 150.0	 1	    1.10000	    0.90000;
	99	 1	 82.1	 -2.6	 0.0	 0.0	 1	    1.08467	  -10.33028	 225.0	 1	    1.08889	    1.00000;
	100	 2	 1.3	 0.0	 0.0	 0.0	 1	    1.06754	  -18.15480	 225.0	 1	    1.08294	    0.95000;
	101	 1	 0.0	 0.0	 0.0	 0.0	 1	    1.08889	   -3.34251	 225.0	 1	    1.08889	    0.93333;
	102	 1	 0.0	 0.0	 0.0	 0.0	 1	    1.08977	   -3.88487	 380.0	 1	    1.10526	    1.03947;
	103	 1	 0.0	 0.0	 0.0	 0.0	 1	    1.09632	   -3.22996	 380.0	 1	    1.10526	    1.03947;
	104	 1	 0.0	 0.0	 0.0	 0.0	 1	    1.07950	  -19.62418	 225.0	 1	    1.08889	    1.00444;
	1828	 1	 86.9	 24.6	 0.0	 0.0	 1	    1.03887	  -19.37405	 225.0	 1	    1.08889	    1.00444;
	105	 1	 0.0	 0.0	 0.0	 0.0	 1	    1.04694	   -8.14976	 225.0	 1	    1.08889	    0.98667;
	106	 1	 12.8	 7.6	 0.0	 0.0	 1	    1.07935	  -19.63316	 225.0	 1	    1.08889	    1.00444;
	107	 1	 150.1	 27.1	 0.0	 0.0	 1	    1.04473	   -8.06635	 225.0	 1	    1.08889	    0.93333;
	108	 1	 0.0	 0.0	 0.0	 0.0	 1	    1.07836	   -4.72200	 380.0	 1	    1.10526	    1.03947;
	109	 1	 32.1	 -1.6	 0.0	 0.0	 1	    1.07168	   -8.70900	 225.0	 1	    1.08889	    1.00000;
	110	 1	 29.4	 1.2	 0.0	 0.0	 1	    1.07798	  -16.85879	 225.0	 1	    1.08986	    1.00444;
	111	 1	 131.9	 2.8	 0.0	 0.0	 1	    1.07167	  -11.30656	 225.0	 1	    1.09612	    1.00000;
	112	 1	 174.9	 55.6	 0.0	 0.0	 1	    1.06854	   -6.77453	 225.0	 1	    1.08889	    0.98667;
	113	 1	 129.6	 33.2	 0.0	 0.0	 1	    1.08706	  -18.53976	 225.0	 1	    1.09036	    1.00444;
	114	 1	 245.6	 120.6	 0.0	 0.0	 1	    1.04755	  -12.81984	 225.0	 1	    1.08889	    0.92444;
	115	 1	 82.1	 14.7	 0.0	 0.0	 1	    1.09611	   -3.13324	 225.0	 1	    1.09614	    0.98667;
	117	 1	 0.0	 0.0	 0.0	 0.0	 1	    1.10415	   -1.94778	 380.0	 1	    1.10526	    1.03947;
	119	 1	 192.0	 -29.8	 0.0	 0.0	 1	    1.06164	  -31.76547	 225.0	 1	    1.08444	    1.00444;
	120	 1	 21.6	 -16.9	 0.0	 0.0	 1	    1.08399	  -19.31595	 225.0	 1	    1.08444	    1.00889;
	121	 1	 0.0	 0.0	 0.0	 0.0	 1	    1.07848	  -16.58673	 380.0	 1	    1.10263	    1.02895;
	122	 1	 -0.1	 -4.2	 0.0	 0.0	 1	    1.04529	   -8.07288	 225.0	 1	    1.08889	    0.93333;
	123	 1	 172.6	 37.2	 0.0	 0.0	 1	    1.05469	   -7.57558	 225.0	 1	    1.08889	    0.93333;
	124	 1	 31.9	 29.8	 0.0	 0.0	 1	    1.01354	  -17.73183	 63.0	 1	    1.07937	    0.92063;
	125	 2	 0.0	 0.0	 0.0	 0.0	 1	    1.07476	   -3.44237	 225.0	 1	    1.07476	    0.95000;
	126	 1	 4.4	 5.3	 0.0	 0.0	 1	    1.08007	   -1.98146	 225.0	 1	    1.09768	    1.00000;
	127	 1	 0.0	 0.0	 0.0	 0.0	 1	    1.07912	   -1.81378	 380.0	 1	    1.10526	    1.05263;
	128	 1	 0.0	 0.0	 0.0	 0.0	 1	    1.07918	   -1.81071	 380.0	 1	    1.10526	    1.05263;
	129	 1	 0.0	 0.0	 0.0	 0.0	 1	    1.07918	   -1.80716	 380.0	 1	    1.10526	    1.05263;
	130	 1	 0.0	 0.0	 0.0	 0.0	 1	    1.07918	   -1.82262	 380.0	 1	    1.10526	    1.05263;
	131	 1	 0.0	 0.0	 0.0	 0.0	 1	    1.09645	   -3.01155	 225.0	 1	    1.09645	    0.98667;
	132	 1	 0.0	 0.0	 0.0	 0.0	 1	    1.09645	   -3.03034	 225.0	 1	    1.09645	    0.98667;
	133	 1	 0.0	 0.0	 0.0	 0.0	 1	    1.10454	   -1.82764	 380.0	 1	    1.10526	    1.03947;
	134	 1	 123.5	 26.5	 0.0	 0.0	 1	    1.05959	  -11.23154	 225.0	 1	    1.08889	    0.96889;
	135	 1	 39.1	 10.1	 0.0	 0.0	 1	    1.08171	  -20.56298	 225.0	 1	    1.08444	    1.00889;
	136	 1	 4.4	 -3.3	 0.0	 0.0	 1	    1.10482	   -7.96240	 380.0	 1	    1.10526	    1.03947;
	137	 1	 166.9	 46.7	 0.0	 0.0	 1	    1.06011	   -7.67938	 225.0	 1	    1.08889	    0.93333;
	138	 1	 0.0	 0.0	 0.0	 0.0	 1	    1.07775	   -2.72590	 380.0	 1	    1.10526	    1.03947;
	140	 1	 202.0	 20.2	 0.0	 0.0	 1	    1.08074	   -4.23068	 225.0	 1	    1.08444	    1.00889;
	142	 1	 231.3	 -18.3	 0.0	 0.0	 1	    1.05828	  -10.36842	 225.0	 1	    1.08444	    1.00444;
	143	 1	 49.3	 7.8	 0.0	 0.0	 1	    1.05880	   -8.41596	 225.0	 1	    1.08889	    0.93333;
	144	 1	 40.6	 10.3	 0.0	 0.0	 1	    1.05878	   -8.41583	 225.0	 1	    1.08889	    0.93333;
	145	 1	 49.8	 -6.2	 0.0	 0.0	 1	    1.07803	  -16.84571	 225.0	 1	    1.08952	    1.00444;
	146	 1	 0.0	 0.0	 0.0	 0.0	 1	    1.08451	   -5.43825	 225.0	 1	    1.09478	    1.00000;
	147	 1	 0.0	 0.0	 0.0	 0.0	 1	    1.08450	   -5.43823	 225.0	 1	    1.09478	    1.00000;
	148	 1	 68.7	 4.5	 0.0	 0.0	 1	    1.05699	  -10.90089	 225.0	 1	    1.08889	    1.00000;
	149	 1	 30.0	 -1.5	 0.0	 0.0	 1	    1.07870	  -12.41414	 225.0	 1	    1.08889	    1.00444;
	150	 1	 52.2	 3.9	 0.0	 0.0	 1	    1.07737	   -4.91077	 225.0	 1	    1.08444	    1.00889;
	151	 1	 40.2	 6.8	 0.0	 0.0	 1	    1.05040	  -12.10500	 225.0	 1	    1.08889	    1.00000;
	152	 1	 0.0	 0.0	 0.0	 0.0	 1	    1.08207	  -10.93879	 225.0	 1	    1.08444	    1.00889;
	153	 1	 0.0	 0.0	 0.0	 0.0	 1	    1.08198	  -10.94841	 225.0	 1	    1.08444	    1.00889;
	154	 1	 0.0	 0.0	 0.0	 0.0	 1	    1.08193	   -5.76662	 225.0	 1	    1.08444	    1.00889;
	155	 1	 0.0	 0.0	 0.0	 0.0	 1	    1.08430	   -4.30795	 380.0	 1	    1.10263	    1.02895;
	156	 1	 165.9	 38.2	 0.0	 0.0	 1	    1.08050	   -4.92516	 225.0	 1	    1.08889	    0.88889;
	157	 1	 0.0	 0.0	 0.0	 0.0	 1	    1.08008	   -1.98122	 225.0	 1	    1.09766	    1.00000;
	158	 1	 0.0	 0.0	 0.0	 0.0	 1	    1.07906	   -1.88739	 380.0	 1	    1.10526	    1.05263;
	159	 1	 37.1	 -0.1	 0.0	 0.0	 1	    1.08100	  -12.84590	 225.0	 1	    1.08889	    0.98667;
	160	 1	 17.9	 14.6	 0.0	 0.0	 1	    1.07266	  -10.16240	 225.0	 1	    1.08889	    1.00000;
	161	 1	 0.0	 0.0	 0.0	 0.0	 1	    1.06713	  -35.32277	 225.0	 1	    1.08444	    1.00444;
	162	 1	 0.0	 0.0	 0.0	 0.0	 1	    1.06713	  -35.32277	 225.0	 1	    1.08444	    1.00444;
	163	 1	 0.0	 0.0	 0.0	 0.0	 1	    1.06714	  -35.32297	 225.0	 1	    1.08444	    1.00444;
	164	 1	 96.9	 -7.4	 0.0	 0.0	 1	    1.06713	  -35.32274	 225.0	 1	    1.08444	    1.00444;
	165	 1	 0.0	 0.0	 0.0	 0.0	 1	    1.05401	   -8.05273	 225.0	 1	    1.08889	    0.93333;
	166	 1	 8.5	 -5.2	 0.0	 0.0	 1	    1.07605	  -11.81118	 225.0	 1	    1.08889	    0.98667;
	167	 1	 0.0	 0.0	 0.0	 0.0	 1	    1.08553	   -5.28971	 225.0	 1	    1.08941	    1.00000;
	168	 1	 0.0	 0.0	 0.0	 0.0	 1	    1.09726	   -3.43615	 380.0	 1	    1.10526	    1.05263;
	169	 2	 0.0	 0.0	 0.0	 0.0	 1	    1.08936	   -3.31592	 225.0	 1	    1.10000	    0.90000;
	170	 1	 13.0	 4.0	 0.0	 0.0	 1	    1.07186	   -5.40200	 150.0	 1	    1.08000	    0.96667;
	171	 1	 50.4	 4.5	 0.0	 0.0	 1	    1.06783	  -17.93255	 225.0	 1	    1.08889	    1.00444;
	172	 1	 0.4	 0.6	 0.0	 0.0	 1	    1.06812	  -17.85292	 225.0	 1	    1.08889	    1.00444;
	173	 1	 29.1	 -7.9	 0.0	 0.0	 1	    1.08136	   -5.12613	 225.0	 1	    1.08889	    0.88889;
	175	 1	 0.0	 0.0	 0.0	 0.0	 1	    1.08433	   -5.11338	 225.0	 1	    1.09176	    1.00000;
	176	 1	 0.0	 0.0	 0.0	 0.0	 1	    1.08433	   -5.11223	 225.0	 1	    1.09176	    1.00000;
	177	 1	 0.0	 0.0	 0.0	 0.0	 1	    1.08433	   -5.11222	 225.0	 1	    1.09176	    1.00000;
	178	 1	 0.0	 0.0	 0.0	 0.0	 1	    1.08437	   -5.11318	 225.0	 1	    1.09176	    1.00000;
	179	 1	 0.0	 0.0	 0.0	 0.0	 1	    1.08437	   -5.11318	 225.0	 1	    1.09176	    1.00000;
	180	 2	 0.0	 0.0	 0.0	 0.0	 1	    1.09480	   -2.12718	 380.0	 1	    1.10676	    0.90000;
	181	 1	 181.5	 39.9	 0.0	 0.0	 1	    1.05060	  -12.07297	 225.0	 1	    1.08889	    1.00000;
	182	 1	 32.0	 21.4	 0.0	 0.0	 1	    1.07683	   -6.93937	 225.0	 1	    1.08889	    0.98667;
	183	 1	 0.0	 0.0	 0.0	 0.0	 1	    1.08979	   -0.79320	 380.0	 1	    1.10526	    1.03947;
	184	 1	 0.0	 0.0	 0.0	 0.0	 1	    1.08944	   -0.69286	 380.0	 1	    1.10526	    1.03947;
	185	 1	 0.0	 0.0	 0.0	 0.0	 1	    1.08945	   -0.69640	 380.0	 1	    1.10526	    1.03947;
	186	 1	 0.0	 0.0	 0.0	 0.0	 1	    1.08978	   -0.80359	 380.0	 1	    1.10526	    1.03947;
	187	 1	 65.9	 23.3	 0.0	 0.0	 1	    1.07743	  -10.80744	 225.0	 1	    1.08889	    0.92444;
	188	 1	 5.4	 1.4	 0.0	 0.0	 1	    1.05000	  -12.22427	 225.0	 1	    1.08889	    0.98667;
	189	 1	 101.7	 -4.3	 0.0	 0.0	 1	    1.06546	  -26.31180	 225.0	 1	    1.08444	    1.00444;
	190	 1	 -6.8	 -0.2	 0.0	 0.0	 1	    1.09483	    0.14574	 380.0	 1	    1.10263	    1.04211;
	191	 1	 -5.3	 -0.0	 0.0	 0.0	 1	    1.09484	    0.12807	 380.0	 1	    1.10263	    1.04211;
	192	 1	 0.0	 0.0	 0.0	 0.0	 1	    1.06466	  -18.56872	 225.0	 1	    1.08889	    1.00444;
	193	 1	 0.0	 0.0	 0.0	 0.0	 1	    1.08018	   -5.65819	 225.0	 1	    1.08889	    0.97778;
	194	 1	 0.0	 0.0	 0.0	 0.0	 1	    1.08019	   -5.65827	 225.0	 1	    1.08889	    0.97778;
	195	 1	 135.5	 19.2	 0.0	 0.0	 1	    1.05752	  -12.14656	 225.0	 1	    1.08889	    0.96889;
	196	 1	 0.0	 0.0	 0.0	 0.0	 1	    1.07956	   -4.41082	 225.0	 1	    1.08889	    0.93333;
	197	 1	 0.0	 0.0	 0.0	 0.0	 1	    1.07969	   -4.35920	 225.0	 1	    1.08889	    0.93333;
	198	 1	 98.9	 26.5	 0.0	 0.0	 1	    1.05646	  -23.38466	 225.0	 1	    1.08444	    1.00444;
	199	 1	 299.2	 -25.2	 0.0	 0.0	 1	    1.06383	  -20.39850	 225.0	 1	    1.08444	    1.00444;
	200	 1	 0.0	 0.0	 0.0	 0.0	 1	    1.07746	   -5.62136	 225.0	 1	    1.08889	    0.97778;
	201	 1	 0.0	 0.0	 0.0	 0.0	 1	    1.08438	  -10.37062	 225.0	 1	    1.08444	    1.00444;
	202	 1	 211.2	 31.0	 0.0	 0.0	 1	    1.06254	  -13.68801	 225.0	 1	    1.08889	    0.95111;
	203	 1	 89.7	 19.5	 0.0	 0.0	 1	    1.08445	  -16.84273	 225.0	 1	    1.08889	    1.00444;
	204	 1	 92.2	 26.0	 0.0	 0.0	 1	    1.04951	  -12.30261	 225.0	 1	    1.08889	    0.98667;
	205	 1	 29.6	 2.7	 0.0	 0.0	 1	    1.07648	  -19.81406	 225.0	 1	    1.08444	    1.00889;
	206	 1	 0.0	 0.0	 0.0	 0.0	 1	    1.07746	  -17.56524	 380.0	 1	    1.10263	    1.02895;
...
];

%% generator data
%	bus	Pg	Qg	Qmax	Qmin	Vg	mBase	status	Pmax	Pmin	Pc1	Pc2	Qc1min	Qc1max	Qc2min	Qc2max	ramp_agc	ramp_10	ramp_30	ramp_q	apf
mpc.gen = [
	1268	 45.0	 27.0	 27.0	 -9.0	 1.05682	 100.0	 1	 45.0	 44.0	 0.0	 0.0	 0.0	 0.0	 0.0	 0.0	 0.0	 0.0	 0.0	 0.0	 0.0;
	1268	 45.0	 27.0	 27.0	 -9.0	 1.05682	 100.0	 1	 45.0	 44.0	 0.0	 0.0	 0.0	 0.0	 0.0	 0.0	 0.0	 0.0	 0.0	 0.0	 0.0;
	1356	 22.0	 5.183	 7.0	 -12.0	 1.07815	 100.0	 1	 22.0	 4.4	 0.0	 0.0	 0.0	 0.0	 0.0	 0.0	 0.0	 0.0	 0.0	 0.0	 0.0;
	89	 25.0	 -9.0	 13.0	 -9.0	 1.03441	 100.0	 1	 25.0	 5.0	 0.0	 0.0	 0.0	 0.0	 0.0	 0.0	 0.0	 0.0	 0.0	 0.0	 0.0;
	1837	 26.0	 -3.119	 16.0	 -17.0	 1.03397	 100.0	 1	 26.0	 5.2	 0.0	 0.0	 0.0	 0.0	 0.0	 0.0	 0.0	 0.0	 0.0	 0.0	 0.0;
	1837	 26.0	 -3.119	 16.0	 -17.0	 1.03397	 100.0	 1	 26.0	 5.2	 0.0	 0.0	 0.0	 0.0	 0.0	 0.0	 0.0	 0.0	 0.0	 0.0	 0.0;
	125	 4.682	 -3.962	 8.0	 -17.0	 1.07476	 100.0	 1	 23.4	 4.68	 0.0	 0.0	 0.0	 0.0	 0.0	 0.0	 0.0	 0.0	 0.0	 0.0	 0.0;
	908	 20.0	 1.9	 2.0	 1.9	 1.10339	 100.0	 1	 20.0	 4.0	 0.0	 0.0	 0.0	 0.0	 0.0	 0.0	 0.0	 0.0	 0.0	 0.0	 0.0;
	817	 5.982	 0.9	 1.0	 0.9	 1.10825	 100.0	 1	 12.0	 2.4	 0.0	 0.0	 0.0	 0.0	 0.0	 0.0	 0.0	 0.0	 0.0	 0.0	 0.0;
	817	 6.777	 0.9	 1.0	 0.9	 1.10825	 100.0	 1	 14.0	 2.8	 0.0	 0.0	 0.0	 0.0	 0.0	 0.0	 0.0	 0.0	 0.0	 0.0	 0.0;
	817	 5.982	 0.9	 1.0	 0.9	 1.10825	 100.0	 1	 12.0	 2.4	 0.0	 0.0	 0.0	 0.0	 0.0	 0.0	 0.0	 0.0	 0.0	 0.0	 0.0;
	1335	 30.0	 -3.523	 10.0	 -10.0	 1.03577	 100.0	 1	 30.0	 6.0	 0.0	 0.0	 0.0	 0.0	 0.0	 0.0	 0.0	 0.0	 0.0	 0.0	 0.0;
	396	 0.0	 0.0	 5.0	 1.0	 1.00501	 100.0	 0	 11.0	 2.2	 0.0	 0.0	 0.0	 0.0	 0.0	 0.0	 0.0	 0.0	 0.0	 0.0	 0.0;
	396	 0.0	 0.0	 5.0	 1.0	 1.00501	 100.0	 0	 11.0	 2.2	 0.0	 0.0	 0.0	 0.0	 0.0	 0.0	 0.0	 0.0	 0.0	 0.0	 0.0;
	975	 14.496	 -2.654	 15.0	 -15.0	 1.07309	 100.0	 1	 35.0	 7.0	 0.0	 0.0	 0.0	 0.0	 0.0	 0.0	 0.0	 0.0	 0.0	 0.0	 0.0;
	858	 55.4	 0.0	 0.0	 0.0	 1.08551	 100.0	 1	 55.4	 11.08	 0.0	 0.0	 0.0	 0.0	 0.0	 0.0	 0.0	 0.0	 0.0	 0.0	 0.0;
	921	 26.875	 1.365	 25.0	 -20.0	 1.09956	 100.0	 1	 42.0	 8.4	 0.0	 0.0	 0.0	 0.0	 0.0	 0.0	 0.0	 0.0	 0.0	 0.0	 0.0;
	921	 26.875	 1.365	 25.0	 -20.0	 1.09956	 100.0	 1	 42.0	 8.4	 0.0	 0.0	 0.0	 0.0	 0.0	 0.0	 0.0	 0.0	 0.0	 0.0	 0.0;
	1255	 87.0	 -14.271	 26.1	 -24.36	 1.08174	 100.0	 1	 87.0	 17.4	 0.0	 0.0	 0.0	 0.0	 0.0	 0.0	 0.0	 0.0	 0.0	 0.0	 0.0;
	169	 1.66	 0.894	 8.3	 -8.3	 1.08936	 100.0	 1	 8.3	 1.66	 0.0	 0.0	 0.0	 0.0	 0.0	 0.0	 0.0	 0.0	 0.0	 0.0	 0.0;
	448	 4.0	 0.0	 0.0	 0.0	 1.07152	 100.0	 1	 4.0	 0.0	 0.0	 0.0	 0.0	 0.0	 0.0	 0.0	 0.0	 0.0	 0.0	 0.0	 0.0;
	241	 0.0	 0.0	 5.0	 -5.0	 1.0012	 100.0	 0	 13.0	 2.6	 0.0	 0.0	 0.0	 0.0	 0.0	 0.0	 0.0	 0.0	 0.0	 0.0	 0.0;
	241	 0.0	 0.0	 5.0	 -5.0	 1.0012	 100.0	 0	 13.0	 2.6	 0.0	 0.0	 0.0	 0.0	 0.0	 0.0	 0.0	 0.0	 0.0	 0.0	 0.0;
	241	 0.0	 0.0	 5.0	 -5.0	 1.0012	 100.0	 0	 13.0	 2.6	 0.0	 0.0	 0.0	 0.0	 0.0	 0.0	 0.0	 0.0	 0.0	 0.0	 0.0;
	241	 0.0	 0.0	 5.0	 -5.0	 1.0012	 100.0	 0	 13.0	 2.6	 0.0	 0.0	 0.0	 0.0	 0.0	 0.0	 0.0	 0.0	 0.0	 0.0	 0.0;
	270	 50.0	 16.667	 27.0	 -9.0	 1.06846	 100.0	 1	 50.0	 10.0	 0.0	 0.0	 0.0	 0.0	 0.0	 0.0	 0.0	 0.0	 0.0	 0.0	 0.0;
	885	 8.0	 0.0	 0.0	 0.0	 1.08145	 100.0	 1	 8.0	 1.6	 0.0	 0.0	 0.0	 0.0	 0.0	 0.0	 0.0	 0.0	 0.0	 0.0	 0.0;
	885	 8.0	 0.0	 0.0	 0.0	 1.08145	 100.0	 1	 8.0	 1.6	 0.0	 0.0	 0.0	 0.0	 0.0	 0.0	 0.0	 0.0	 0.0	 0.0	 0.0;
	876	 54.0	 0.0	 0.0	 0.0	 1.07384	 100.0	 1	 54.0	 10.8	 0.0	 0.0	 0.0	 0.0	 0.0	 0.0	 0.0	 0.0	 0.0	 0.0	 0.0;
	180	 239.0	 -28.574	 80.0	 -75.0	 1.0948	 100.0	 1	 239.0	 47.8	 0.0	 0.0	 0.0	 0.0	 0.0	 0.0	 0.0	 0.0	 0.0	 0.0	 0.0;
	46	 30.0	 -4.0	 10.0	 -4.0	 1.10668	 100.0	 1	 30.0	 6.0	 0.0	 0.0	 0.0	 0.0	 0.0	 0.0	 0.0	 0.0	 0.0	 0.0	 0.0;
	803	 13.8	 -5.56	 4.63	 -5.56	 1.07577	 100.0	 1	 13.8	 2.76	 0.0	 0.0	 0.0	 0.0	 0.0	 0.0	 0.0	 0.0	 0.0	 0.0	 0.0;
	356	 41.4	 -11.59	 12.42	 -11.59	 1.0841	 100.0	 1	 41.4	 8.28	 0.0	 0.0	 0.0	 0.0	 0.0	 0.0	 0.0	 0.0	 0.0	 0.0	 0.0;
	100	 130.0	 59.0	 59.0	 -26.0	 1.06754	 100.0	 1	 130.0	 26.0	 0.0	 0.0	 0.0	 0.0	 0.0	 0.0	 0.0	 0.0	 0.0	 0.0	 0.0;
	707	 0.0	 0.0	 8.0	 -8.0	 1.08487	 100.0	 0	 21.0	 4.2	 0.0	 0.0	 0.0	 0.0	 0.0	 0.0	 0.0	 0.0	 0.0	 0.0	 0.0;
	973	 -4.192	 0.0	 0.0	 0.0	 1.10059	 100.0	 1	 0.0	 -8.0	 0.0	 0.0	 0.0	 0.0	 0.0	 0.0	 0.0	 0.0	 0.0	 0.0	 0.0;
	973	 26.701	 -10.0	 17.0	 -10.0	 1.10059	 100.0	 1	 53.0	 10.6	 0.0	 0.0	 0.0	 0.0	 0.0	 0.0	 0.0	 0.0	 0.0	 0.0	 0.0;
	1118	 55.0	 0.0	 0.0	 0.0	 1.06008	 100.0	 1	 55.0	 11.0	 0.0	 0.0	 0.0	 0.0	 0.0	 0.0	 0.0	 0.0	 0.0	 0.0	 0.0;
	897	 16.259	 7.688	 10.0	 -3.0	 1.1	 100.0	 1	 27.0	 5.4	 0.0	 0.0	 0.0	 0.0	 0.0	 0.0	 0.0	 0.0	 0.0	 0.0	 0.0;
	897	 16.259	 7.688	 10.0	 -3.0	 1.1	 100.0	 1	 27.0	 5.4	 0.0	 0.0	 0.0	 0.0	 0.0	 0.0	 0.0	 0.0	 0.0	 0.0	 0.0;
	58	 6.0	 1.9	 2.0	 1.9	 1.10521	 100.0	 1	 6.0	 1.2	 0.0	 0.0	 0.0	 0.0	 0.0	 0.0	 0.0	 0.0	 0.0	 0.0	 0.0;
	82	 25.3	 0.0	 0.0	 0.0	 1.06408	 100.0	 1	 25.3	 5.06	 0.0	 0.0	 0.0	 0.0	 0.0	 0.0	 0.0	 0.0	 0.0	 0.0	 0.0;
	474	 52.0	 -13.0	 10.0	 -13.0	 1.07713	 100.0	 1	 52.0	 10.4	 0.0	 0.0	 0.0	 0.0	 0.0	 0.0	 0.0	 0.0	 0.0	 0.0	 0.0;
	1221	 19.4	 -3.754	 35.0	 -35.0	 1.07783	 100.0	 1	 58.0	 11.6	 0.0	 0.0	 0.0	 0.0	 0.0	 0.0	 0.0	 0.0	 0.0	 0.0	 0.0;
	355	 0.0	 0.0	 40.0	 -40.0	 1.08483	 100.0	 0	 62.0	 12.4	 0.0	 0.0	 0.0	 0.0	 0.0	 0.0	 0.0	 0.0	 0.0	 0.0	 0.0;
	471	 78.0	 1.0	 1.0	 0.0	 1.06816	 100.0	 1	 78.0	 15.6	 0.0	 0.0	 0.0	 0.0	 0.0	 0.0	 0.0	 0.0	 0.0	 0.0	 0.0;
	1321	 11.0	 0.9	 1.0	 0.9	 1.10783	 100.0	 1	 11.0	 2.2	 0.0	 0.0	 0.0	 0.0	 0.0	 0.0	 0.0	 0.0	 0.0	 0.0	 0.0;
	1321	 0.01	 -0.0	 0.1	 -0.1	 1.10783	 100.0	 0	 2.5	 0.0	 0.0	 0.0	 0.0	 0.0	 0.0	 0.0	 0.0	 0.0	 0.0	 0.0	 0.0;
	1829	 23.5	 8.0	 8.0	 -8.0	 1.06673	 100.0	 1	 23.5	 4.7	 0.0	 0.0	 0.0	 0.0	 0.0	 0.0	 0.0	 0.0	 0.0	 0.0	 0.0;
	1005	 30.439	 -13.413	 19.0	 -19.0	 1.09083	 100.0	 1	 39.0	 7.8	 0.0	 0.0	 0.0	 0.0	 0.0	 0.0	 0.0	 0.0	 0.0	 0.0	 0.0;
	14	 27.6	 0.0	 0.0	 0.0	 1.07199	 100.0	 1	 27.6	 5.52	 0.0	 0.0	 0.0	 0.0	 0.0	 0.0	 0.0	 0.0	 0.0	 0.0	 0.0;
	14	 24.0	 0.0	 0.0	 0.0	 1.07199	 100.0	 1	 24.0	 4.8	 0.0	 0.0	 0.0	 0.0	 0.0	 0.0	 0.0	 0.0	 0.0	 0.0	 0.0;
	1628	 670.0	 155.269	 155.3	 -217.55	 1.0274	 100.0	 1	 670.0	 200.0	 0.0	 0.0	 0.0	 0.0	 0.0	 0.0	 0.0	 0.0	 0.0	 0.0	 0.0;
	1629	 700.0	 171.668	 231.39	 -190.58	 1.02995	 100.0	 1	 700.0	 140.0	 0.0	 0.0	 0.0	 0.0	 0.0	 0.0	 0.0	 0.0	 0.0	 0.0	 0.0;
	1842	 23.0	 -0.064	 15.23	 -10.77	 1.03248	 100.0	 1	 23.0	 4.6	 0.0	 0.0	 0.0	 0.0	 0.0	 0.0	 0.0	 0.0	 0.0	 0.0	 0.0;
	1843	 23.0	 -0.159	 15.06	 -10.94	 1.03197	 100.0	 1	 23.0	 4.6	 0.0	 0.0	 0.0	 0.0	 0.0	 0.0	 0.0	 0.0	 0.0	 0.0	 0.0;
	1844	 27.0	 1.629	 24.62	 -15.38	 1.03876	 100.0	 1	 27.0	 5.4	 0.0	 0.0	 0.0	 0.0	 0.0	 0.0	 0.0	 0.0	 0.0	 0.0	 0.0;
	1630	 86.0	 39.572	 43.86	 -8.5	 1.02344	 100.0	 1	 86.0	 17.2	 0.0	 0.0	 0.0	 0.0	 0.0	 0.0	 0.0	 0.0	 0.0	 0.0	 0.0;
	1631	 49.0	 18.404	 22.19	 -9.73	 1.00974	 100.0	 1	 49.0	 9.8	 0.0	 0.0	 0.0	 0.0	 0.0	 0.0	 0.0	 0.0	 0.0	 0.0	 0.0;
	1845	 24.8	 7.985	 71.8	 -30.08	 1.02766	 100.0	 1	 124.0	 24.8	 0.0	 0.0	 0.0	 0.0	 0.0	 0.0	 0.0	 0.0	 0.0	 0.0	 0.0;
	1846	 32.0	 3.905	 8.36	 -8.36	 1.08385	 100.0	 1	 32.0	 6.4	 0.0	 0.0	 0.0	 0.0	 0.0	 0.0	 0.0	 0.0	 0.0	 0.0	 0.0;
	1632	 32.0	 3.905	 8.36	 -8.36	 1.08385	 100.0	 1	 32.0	 6.4	 0.0	 0.0	 0.0	 0.0	 0.0	 0.0	 0.0	 0.0	 0.0	 0.0	 0.0;
	1847	 32.0	 3.842	 8.15	 -8.57	 1.08365	 100.0	 1	 32.0	 6.4	 0.0	 0.0	 0.0	 0.0	 0.0	 0.0	 0.0	 0.0	 0.0	 0.0	 0.0;
	1848	 32.0	 3.842	 8.15	 -8.57	 1.08365	 100.0	 1	 32.0	 6.4	 0.0	 0.0	 0.0	 0.0	 0.0	 0.0	 0.0	 0.0	 0.0	 0.0	 0.0;
	1849	 92.0	 24.41	 55.77	 -34.23	 1.06168	 100.0	 1	 92.0	 18.4	 0.0	 0.0	 0.0	 0.0	 0.0	 0.0	 0.0	 0.0	 0.0	 0.0	 0.0;
	1850	 92.0	 21.513	 50.5	 -39.5	 1.05822	 100.0	 1	 92.0	 18.4	 0.0	 0.0	 0.0	 0.0	 0.0	 0.0	 0.0	 0.0	 0.0	 0.0	 0.0;
	1851	 92.0	 48.353	 56.32	 -33.68	 1.0924	 100.0	 1	 92.0	 18.4	 0.0	 0.0	 0.0	 0.0	 0.0	 0.0	 0.0	 0.0	 0.0	 0.0	 0.0;
	1852	 92.0	 47.649	 54.57	 -35.43	 1.09147	 100.0	 1	 92.0	 18.4	 0.0	 0.0	 0.0	 0.0	 0.0	 0.0	 0.0	 0.0	 0.0	 0.0	 0.0;
	1853	 92.0	 55.26	 55.26	 -34.74	 1.09549	 100.0	 1	 92.0	 18.4	 0.0	 0.0	 0.0	 0.0	 0.0	 0.0	 0.0	 0.0	 0.0	 0.0	 0.0;
	1854	 92.0	 56.48	 56.48	 -33.52	 1.09707	 100.0	 1	 92.0	 18.4	 0.0	 0.0	 0.0	 0.0	 0.0	 0.0	 0.0	 0.0	 0.0	 0.0	 0.0;
	1633	 945.08	 118.13	 421.39	 -376.62	 1.03168	 100.0	 1	 945.08	 255.07	 0.0	 0.0	 0.0	 0.0	 0.0	 0.0	 0.0	 0.0	 0.0	 0.0	 0.0;
	1634	 978.04	 127.97	 428.83	 -369.21	 1.03238	 100.0	 1	 978.04	 288.05	 0.0	 0.0	 0.0	 0.0	 0.0	 0.0	 0.0	 0.0	 0.0	 0.0	 0.0;
	1635	 976.08	 125.061	 428.07	 -369.92	 1.03211	 100.0	 1	 976.08	 256.08	 0.0	 0.0	 0.0	 0.0	 0.0	 0.0	 0.0	 0.0	 0.0	 0.0	 0.0;
	1636	 943.08	 117.768	 420.86	 -377.13	 1.03166	 100.0	 1	 943.08	 253.07	 0.0	 0.0	 0.0	 0.0	 0.0	 0.0	 0.0	 0.0	 0.0	 0.0	 0.0;
	1637	 156.003	 17.841	 153.03	 -90.23	 1.01837	 100.0	 1	 252.0	 156.0	 0.0	 0.0	 0.0	 0.0	 0.0	 0.0	 0.0	 0.0	 0.0	 0.0	 0.0;
	1638	 249.998	 45.69	 152.44	 -90.81	 1.02454	 100.0	 1	 250.0	 154.0	 0.0	 0.0	 0.0	 0.0	 0.0	 0.0	 0.0	 0.0	 0.0	 0.0	 0.0;
	1639	 250.0	 50.292	 105.68	 -58.28	 1.05	 100.0	 1	 250.0	 154.0	 0.0	 0.0	 0.0	 0.0	 0.0	 0.0	 0.0	 0.0	 0.0	 0.0	 0.0;
	1640	 305.0	 49.772	 228.81	 -159.91	 1.05	 100.0	 1	 305.0	 122.0	 0.0	 0.0	 0.0	 0.0	 0.0	 0.0	 0.0	 0.0	 0.0	 0.0	 0.0;
	1641	 155.0	 33.062	 94.32	 -74.64	 1.05747	 100.0	 1	 155.0	 89.0	 0.0	 0.0	 0.0	 0.0	 0.0	 0.0	 0.0	 0.0	 0.0	 0.0	 0.0;
	1642	 15.336	 -7.16	 21.65	 -18.77	 1.01302	 100.0	 1	 58.0	 11.6	 0.0	 0.0	 0.0	 0.0	 0.0	 0.0	 0.0	 0.0	 0.0	 0.0	 0.0;
	1643	 15.33	 -1.712	 16.01	 -10.66	 1.02136	 100.0	 1	 58.0	 11.6	 0.0	 0.0	 0.0	 0.0	 0.0	 0.0	 0.0	 0.0	 0.0	 0.0	 0.0;
	1855	 15.336	 -7.329	 21.47	 -18.95	 1.01274	 100.0	 1	 58.0	 11.6	 0.0	 0.0	 0.0	 0.0	 0.0	 0.0	 0.0	 0.0	 0.0	 0.0	 0.0;
	1644	 15.33	 -1.674	 16.05	 -10.62	 1.02143	 100.0	 1	 58.0	 11.6	 0.0	 0.0	 0.0	 0.0	 0.0	 0.0	 0.0	 0.0	 0.0	 0.0	 0.0;
	1645	 15.33	 -1.902	 15.81	 -10.86	 1.02102	 100.0	 1	 58.0	 11.6	 0.0	 0.0	 0.0	 0.0	 0.0	 0.0	 0.0	 0.0	 0.0	 0.0	 0.0;
	1646	 263.0	 124.542	 146.45	 -90.18	 1.05072	 100.0	 1	 263.0	 133.0	 0.0	 0.0	 0.0	 0.0	 0.0	 0.0	 0.0	 0.0	 0.0	 0.0	 0.0;
	1647	 44.96	 22.561	 50.67	 -38.09	 1.1	 100.0	 1	 44.96	 8.99	 0.0	 0.0	 0.0	 0.0	 0.0	 0.0	 0.0	 0.0	 0.0	 0.0	 0.0;
	1856	 113.048	 -8.445	 108.44	 -71.56	 1.02442	 100.0	 1	 139.0	 27.8	 0.0	 0.0	 0.0	 0.0	 0.0	 0.0	 0.0	 0.0	 0.0	 0.0	 0.0;
	1857	 34.756	 2.854	 34.32	 -25.68	 0.99605	 100.0	 1	 49.0	 9.8	 0.0	 0.0	 0.0	 0.0	 0.0	 0.0	 0.0	 0.0	 0.0	 0.0	 0.0;
	1858	 34.765	 0.347	 55.44	 -44.56	 0.99549	 100.0	 1	 49.0	 9.8	 0.0	 0.0	 0.0	 0.0	 0.0	 0.0	 0.0	 0.0	 0.0	 0.0	 0.0;
	1859	 34.76	 2.709	 34.29	 -25.71	 0.99984	 100.0	 1	 49.0	 9.8	 0.0	 0.0	 0.0	 0.0	 0.0	 0.0	 0.0	 0.0	 0.0	 0.0	 0.0;
	2070	 34.745	 1.071	 31.96	 -28.04	 0.99683	 100.0	 1	 49.0	 9.8	 0.0	 0.0	 0.0	 0.0	 0.0	 0.0	 0.0	 0.0	 0.0	 0.0	 0.0;
	1860	 6.4	 0.141	 18.84	 -17.16	 1.06102	 100.0	 1	 32.0	 6.4	 0.0	 0.0	 0.0	 0.0	 0.0	 0.0	 0.0	 0.0	 0.0	 0.0	 0.0;
	1861	 6.4	 -2.385	 19.75	 -16.25	 1.061	 100.0	 1	 32.0	 6.4	 0.0	 0.0	 0.0	 0.0	 0.0	 0.0	 0.0	 0.0	 0.0	 0.0	 0.0;
	1648	 936.29	 159.108	 530.99	 -158.23	 1.00972	 100.0	 1	 936.29	 266.29	 0.0	 0.0	 0.0	 0.0	 0.0	 0.0	 0.0	 0.0	 0.0	 0.0	 0.0;
	1649	 942.82	 108.63	 533.69	 -156.07	 1.00297	 100.0	 1	 942.82	 272.82	 0.0	 0.0	 0.0	 0.0	 0.0	 0.0	 0.0	 0.0	 0.0	 0.0	 0.0;
	1650	 924.28	 163.454	 537.68	 -152.82	 1.01017	 100.0	 1	 924.28	 274.28	 0.0	 0.0	 0.0	 0.0	 0.0	 0.0	 0.0	 0.0	 0.0	 0.0	 0.0;
	1651	 922.8	 109.906	 529.89	 -160.89	 1.00314	 100.0	 1	 922.8	 272.8	 0.0	 0.0	 0.0	 0.0	 0.0	 0.0	 0.0	 0.0	 0.0	 0.0	 0.0;
	1652	 1308.0	 122.631	 681.04	 -153.0	 1.00652	 100.0	 1	 1308.0	 318.0	 0.0	 0.0	 0.0	 0.0	 0.0	 0.0	 0.0	 0.0	 0.0	 0.0	 0.0;
	1862	 1308.0	 122.595	 681.03	 -153.0	 1.00652	 100.0	 1	 1308.0	 318.0	 0.0	 0.0	 0.0	 0.0	 0.0	 0.0	 0.0	 0.0	 0.0	 0.0	 0.0;
	1653	 35.0	 6.08	 6.08	 -1.92	 1.0753	 100.0	 1	 35.0	 7.0	 0.0	 0.0	 0.0	 0.0	 0.0	 0.0	 0.0	 0.0	 0.0	 0.0	 0.0;
	1654	 35.0	 6.21	 6.21	 -1.79	 1.07554	 100.0	 1	 35.0	 7.0	 0.0	 0.0	 0.0	 0.0	 0.0	 0.0	 0.0	 0.0	 0.0	 0.0	 0.0;
	1655	 35.0	 6.21	 6.21	 -1.79	 1.07554	 100.0	 1	 35.0	 7.0	 0.0	 0.0	 0.0	 0.0	 0.0	 0.0	 0.0	 0.0	 0.0	 0.0	 0.0;
	1656	 35.0	 6.11	 6.11	 -1.89	 1.07535	 100.0	 1	 35.0	 7.0	 0.0	 0.0	 0.0	 0.0	 0.0	 0.0	 0.0	 0.0	 0.0	 0.0	 0.0;
	1657	 35.0	 6.11	 6.11	 -1.89	 1.07535	 100.0	 1	 35.0	 7.0	 0.0	 0.0	 0.0	 0.0	 0.0	 0.0	 0.0	 0.0	 0.0	 0.0	 0.0;
	1658	 35.0	 6.11	 6.11	 -1.89	 1.07535	 100.0	 1	 35.0	 7.0	 0.0	 0.0	 0.0	 0.0	 0.0	 0.0	 0.0	 0.0	 0.0	 0.0	 0.0;
	1863	 18.328	 3.177	 18.45	 -13.16	 1.03344	 100.0	 1	 36.97	 7.39	 0.0	 0.0	 0.0	 0.0	 0.0	 0.0	 0.0	 0.0	 0.0	 0.0	 0.0;
	1659	 18.328	 3.177	 18.45	 -13.16	 1.03344	 100.0	 1	 36.97	 7.39	 0.0	 0.0	 0.0	 0.0	 0.0	 0.0	 0.0	 0.0	 0.0	 0.0	 0.0;
	1660	 18.339	 3.769	 18.45	 -11.35	 1.03534	 100.0	 1	 36.97	 7.39	 0.0	 0.0	 0.0	 0.0	 0.0	 0.0	 0.0	 0.0	 0.0	 0.0	 0.0;
	1661	 18.335	 3.528	 18.11	 -11.7	 1.03457	 100.0	 1	 36.97	 7.39	 0.0	 0.0	 0.0	 0.0	 0.0	 0.0	 0.0	 0.0	 0.0	 0.0	 0.0;
	1662	 23.688	 3.064	 18.21	 -13.41	 1.03206	 100.0	 1	 36.97	 7.39	 0.0	 0.0	 0.0	 0.0	 0.0	 0.0	 0.0	 0.0	 0.0	 0.0	 0.0;
	1663	 23.695	 3.301	 18.55	 -13.05	 1.03282	 100.0	 1	 36.97	 7.39	 0.0	 0.0	 0.0	 0.0	 0.0	 0.0	 0.0	 0.0	 0.0	 0.0	 0.0;
	1864	 20.0	 -9.459	 10.54	 -9.46	 0.93914	 100.0	 1	 20.0	 4.0	 0.0	 0.0	 0.0	 0.0	 0.0	 0.0	 0.0	 0.0	 0.0	 0.0	 0.0;
	1865	 20.0	 -7.679	 12.32	 -7.68	 0.94817	 100.0	 1	 20.0	 4.0	 0.0	 0.0	 0.0	 0.0	 0.0	 0.0	 0.0	 0.0	 0.0	 0.0	 0.0;
	1866	 30.98	 11.56	 17.85	 -13.79	 1.05541	 100.0	 1	 30.98	 6.2	 0.0	 0.0	 0.0	 0.0	 0.0	 0.0	 0.0	 0.0	 0.0	 0.0	 0.0;
	1664	 30.98	 11.56	 17.85	 -13.79	 1.05541	 100.0	 1	 30.98	 6.2	 0.0	 0.0	 0.0	 0.0	 0.0	 0.0	 0.0	 0.0	 0.0	 0.0	 0.0;
	1665	 30.98	 11.687	 18.01	 -13.62	 1.05581	 100.0	 1	 30.98	 6.2	 0.0	 0.0	 0.0	 0.0	 0.0	 0.0	 0.0	 0.0	 0.0	 0.0	 0.0;
	1867	 30.98	 11.687	 18.01	 -13.62	 1.05581	 100.0	 1	 30.98	 6.2	 0.0	 0.0	 0.0	 0.0	 0.0	 0.0	 0.0	 0.0	 0.0	 0.0	 0.0;
	1666	 30.98	 10.589	 17.89	 -13.75	 1.05312	 100.0	 1	 30.98	 6.2	 0.0	 0.0	 0.0	 0.0	 0.0	 0.0	 0.0	 0.0	 0.0	 0.0	 0.0;
	1868	 30.98	 10.473	 17.74	 -13.91	 1.05276	 100.0	 1	 30.98	 6.2	 0.0	 0.0	 0.0	 0.0	 0.0	 0.0	 0.0	 0.0	 0.0	 0.0	 0.0;
	1667	 337.0	 33.667	 656.06	 -184.89	 1.01666	 100.0	 1	 1330.0	 337.0	 0.0	 0.0	 0.0	 0.0	 0.0	 0.0	 0.0	 0.0	 0.0	 0.0	 0.0;
	1869	 467.0	 69.401	 515.51	 -327.72	 1.01967	 100.0	 1	 1360.0	 467.0	 0.0	 0.0	 0.0	 0.0	 0.0	 0.0	 0.0	 0.0	 0.0	 0.0	 0.0;
	1668	 513.443	 92.801	 656.92	 -183.9	 1.02298	 100.0	 1	 1360.0	 367.0	 0.0	 0.0	 0.0	 0.0	 0.0	 0.0	 0.0	 0.0	 0.0	 0.0	 0.0;
	1669	 450.468	 85.298	 648.03	 -192.8	 1.02255	 100.0	 1	 1360.0	 367.0	 0.0	 0.0	 0.0	 0.0	 0.0	 0.0	 0.0	 0.0	 0.0	 0.0	 0.0;
	1870	 90.0	 60.11	 60.11	 -39.89	 1.06181	 100.0	 1	 90.0	 18.0	 0.0	 0.0	 0.0	 0.0	 0.0	 0.0	 0.0	 0.0	 0.0	 0.0	 0.0;
	1871	 0.0	 0.0	 59.33	 -40.67	 1.04088	 100.0	 0	 95.0	 19.0	 0.0	 0.0	 0.0	 0.0	 0.0	 0.0	 0.0	 0.0	 0.0	 0.0	 0.0;
	1872	 0.0	 0.0	 59.61	 -40.39	 0.99753	 100.0	 0	 102.0	 20.4	 0.0	 0.0	 0.0	 0.0	 0.0	 0.0	 0.0	 0.0	 0.0	 0.0	 0.0;
	1670	 1.5	 -103.91	 281.46	 -103.91	 0.94122	 100.0	 1	 1.5	 1.4	 0.0	 0.0	 0.0	 0.0	 0.0	 0.0	 0.0	 0.0	 0.0	 0.0	 0.0;
	1873	 240.0	 94.029	 94.03	 -45.97	 1.0578	 100.0	 1	 240.0	 48.0	 0.0	 0.0	 0.0	 0.0	 0.0	 0.0	 0.0	 0.0	 0.0	 0.0	 0.0;
	1874	 240.0	 95.109	 95.11	 -44.89	 1.05834	 100.0	 1	 240.0	 48.0	 0.0	 0.0	 0.0	 0.0	 0.0	 0.0	 0.0	 0.0	 0.0	 0.0	 0.0;
	1671	 942.72	 394.419	 524.6	 -107.2	 1.04243	 100.0	 1	 942.72	 232.72	 0.0	 0.0	 0.0	 0.0	 0.0	 0.0	 0.0	 0.0	 0.0	 0.0	 0.0;
	1673	 953.74	 161.23	 511.64	 -99.08	 1.01393	 100.0	 1	 953.74	 243.74	 0.0	 0.0	 0.0	 0.0	 0.0	 0.0	 0.0	 0.0	 0.0	 0.0	 0.0;
	1674	 952.74	 161.001	 555.41	 -99.32	 1.01391	 100.0	 1	 952.74	 242.74	 0.0	 0.0	 0.0	 0.0	 0.0	 0.0	 0.0	 0.0	 0.0	 0.0	 0.0;
	1675	 1002.247	 202.676	 682.28	 -126.36	 1.03032	 100.0	 1	 1503.0	 403.0	 0.0	 0.0	 0.0	 0.0	 0.0	 0.0	 0.0	 0.0	 0.0	 0.0	 0.0;
	1676	 970.165	 208.751	 687.17	 -121.66	 1.03063	 100.0	 1	 1503.0	 403.0	 0.0	 0.0	 0.0	 0.0	 0.0	 0.0	 0.0	 0.0	 0.0	 0.0	 0.0;
	1875	 1498.0	 -85.257	 409.45	 -352.29	 0.97612	 100.0	 1	 1498.0	 398.0	 0.0	 0.0	 0.0	 0.0	 0.0	 0.0	 0.0	 0.0	 0.0	 0.0	 0.0;
	1677	 1498.0	 16.438	 409.42	 -352.33	 0.98617	 100.0	 1	 1498.0	 398.0	 0.0	 0.0	 0.0	 0.0	 0.0	 0.0	 0.0	 0.0	 0.0	 0.0	 0.0;
	1877	 75.0	 26.006	 51.88	 -38.44	 1.1	 100.0	 1	 75.0	 15.0	 0.0	 0.0	 0.0	 0.0	 0.0	 0.0	 0.0	 0.0	 0.0	 0.0	 0.0;
	1878	 75.0	 26.006	 51.88	 -38.44	 1.1	 100.0	 1	 75.0	 15.0	 0.0	 0.0	 0.0	 0.0	 0.0	 0.0	 0.0	 0.0	 0.0	 0.0	 0.0;
	1678	 95.0	 10.475	 104.12	 -61.4	 0.99653	 100.0	 1	 95.0	 8.5	 0.0	 0.0	 0.0	 0.0	 0.0	 0.0	 0.0	 0.0	 0.0	 0.0	 0.0;
	1679	 95.0	 10.416	 103.94	 -61.58	 0.99649	 100.0	 1	 95.0	 8.5	 0.0	 0.0	 0.0	 0.0	 0.0	 0.0	 0.0	 0.0	 0.0	 0.0	 0.0;
	1680	 148.2	 34.959	 86.67	 -10.65	 1.05	 100.0	 1	 148.2	 4.2	 0.0	 0.0	 0.0	 0.0	 0.0	 0.0	 0.0	 0.0	 0.0	 0.0	 0.0;
	1681	 685.0	 128.601	 220.22	 -59.17	 1.01174	 100.0	 1	 685.0	 180.0	 0.0	 0.0	 0.0	 0.0	 0.0	 0.0	 0.0	 0.0	 0.0	 0.0	 0.0;
	1682	 610.0	 114.514	 330.28	 -165.24	 1.00929	 100.0	 1	 610.0	 310.0	 0.0	 0.0	 0.0	 0.0	 0.0	 0.0	 0.0	 0.0	 0.0	 0.0	 0.0;
	1683	 610.0	 138.603	 297.67	 -191.83	 1.01368	 100.0	 1	 610.0	 310.0	 0.0	 0.0	 0.0	 0.0	 0.0	 0.0	 0.0	 0.0	 0.0	 0.0	 0.0;
	1684	 700.0	 119.875	 254.82	 -293.65	 1.00964	 100.0	 1	 700.0	 205.0	 0.0	 0.0	 0.0	 0.0	 0.0	 0.0	 0.0	 0.0	 0.0	 0.0	 0.0;
	1880	 26.436	 -2.034	 16.85	 -27.03	 1.04252	 100.0	 1	 38.0	 7.6	 0.0	 0.0	 0.0	 0.0	 0.0	 0.0	 0.0	 0.0	 0.0	 0.0	 0.0;
	2045	 0.0	 0.0	 15.82	 -14.18	 1.03867	 100.0	 0	 31.0	 6.2	 0.0	 0.0	 0.0	 0.0	 0.0	 0.0	 0.0	 0.0	 0.0	 0.0	 0.0;
	2081	 0.0	 0.0	 15.82	 -14.18	 1.03867	 100.0	 0	 31.0	 6.2	 0.0	 0.0	 0.0	 0.0	 0.0	 0.0	 0.0	 0.0	 0.0	 0.0	 0.0;
	1881	 40.797	 14.246	 15.6	 -13.8	 1.03302	 100.0	 1	 50.0	 10.0	 0.0	 0.0	 0.0	 0.0	 0.0	 0.0	 0.0	 0.0	 0.0	 0.0	 0.0;
	1882	 40.779	 13.849	 15.2	 -14.2	 1.03211	 100.0	 1	 50.0	 10.0	 0.0	 0.0	 0.0	 0.0	 0.0	 0.0	 0.0	 0.0	 0.0	 0.0	 0.0;
	1685	 40.807	 14.454	 15.81	 -13.6	 1.03349	 100.0	 1	 50.0	 10.0	 0.0	 0.0	 0.0	 0.0	 0.0	 0.0	 0.0	 0.0	 0.0	 0.0	 0.0;
	1883	 40.807	 14.454	 15.81	 -13.6	 1.03349	 100.0	 1	 50.0	 10.0	 0.0	 0.0	 0.0	 0.0	 0.0	 0.0	 0.0	 0.0	 0.0	 0.0	 0.0;
	1884	 40.807	 14.454	 15.81	 -13.6	 1.03349	 100.0	 1	 50.0	 10.0	 0.0	 0.0	 0.0	 0.0	 0.0	 0.0	 0.0	 0.0	 0.0	 0.0	 0.0;
	1885	 40.797	 14.246	 15.6	 -13.8	 1.03302	 100.0	 1	 50.0	 10.0	 0.0	 0.0	 0.0	 0.0	 0.0	 0.0	 0.0	 0.0	 0.0	 0.0	 0.0;
	1686	 280.0	 -10.695	 532.91	 -90.14	 0.99847	 100.0	 1	 1000.0	 280.0	 0.0	 0.0	 0.0	 0.0	 0.0	 0.0	 0.0	 0.0	 0.0	 0.0	 0.0;
	1687	 280.0	 -10.698	 535.45	 -87.61	 0.99847	 100.0	 1	 1000.0	 280.0	 0.0	 0.0	 0.0	 0.0	 0.0	 0.0	 0.0	 0.0	 0.0	 0.0	 0.0;
	1688	 280.0	 -10.722	 567.71	 -88.3	 0.99849	 100.0	 1	 1000.0	 280.0	 0.0	 0.0	 0.0	 0.0	 0.0	 0.0	 0.0	 0.0	 0.0	 0.0	 0.0;
	1689	 280.0	 -10.722	 559.16	 -96.85	 0.99849	 100.0	 1	 930.0	 280.0	 0.0	 0.0	 0.0	 0.0	 0.0	 0.0	 0.0	 0.0	 0.0	 0.0	 0.0;
	1886	 16.501	 0.183	 17.23	 -17.46	 1.02867	 100.0	 1	 57.0	 11.4	 0.0	 0.0	 0.0	 0.0	 0.0	 0.0	 0.0	 0.0	 0.0	 0.0	 0.0;
	1887	 16.5	 -1.339	 15.45	 -19.21	 1.02597	 100.0	 1	 57.0	 11.4	 0.0	 0.0	 0.0	 0.0	 0.0	 0.0	 0.0	 0.0	 0.0	 0.0	 0.0;
	1888	 16.501	 0.282	 17.35	 -17.35	 1.02884	 100.0	 1	 57.0	 11.4	 0.0	 0.0	 0.0	 0.0	 0.0	 0.0	 0.0	 0.0	 0.0	 0.0	 0.0;
	1690	 298.178	 26.103	 219.77	 -155.72	 0.99063	 100.0	 1	 451.0	 239.0	 0.0	 0.0	 0.0	 0.0	 0.0	 0.0	 0.0	 0.0	 0.0	 0.0	 0.0;
	1691	 63.0	 16.328	 51.25	 -10.63	 1.04984	 100.0	 1	 63.0	 21.0	 0.0	 0.0	 0.0	 0.0	 0.0	 0.0	 0.0	 0.0	 0.0	 0.0	 0.0;
	1692	 308.895	 90.757	 258.1	 -182.18	 1.07048	 100.0	 1	 433.8	 248.8	 0.0	 0.0	 0.0	 0.0	 0.0	 0.0	 0.0	 0.0	 0.0	 0.0	 0.0;
	1693	 106.961	 11.24	 71.21	 -44.25	 1.00838	 100.0	 1	 168.17	 81.81	 0.0	 0.0	 0.0	 0.0	 0.0	 0.0	 0.0	 0.0	 0.0	 0.0	 0.0;
	1694	 107.731	 11.254	 73.34	 -37.69	 1.00873	 100.0	 1	 168.6	 82.28	 0.0	 0.0	 0.0	 0.0	 0.0	 0.0	 0.0	 0.0	 0.0	 0.0	 0.0;
	1695	 94.21	 23.883	 113.53	 -43.7	 1.01193	 100.0	 1	 248.21	 53.91	 0.0	 0.0	 0.0	 0.0	 0.0	 0.0	 0.0	 0.0	 0.0	 0.0	 0.0;
	1696	 83.68	 17.279	 100.92	 -59.36	 1.01212	 100.0	 1	 238.09	 43.97	 0.0	 0.0	 0.0	 0.0	 0.0	 0.0	 0.0	 0.0	 0.0	 0.0	 0.0;
	1697	 919.69	 153.778	 525.14	 -88.61	 1.0192	 100.0	 1	 919.69	 229.69	 0.0	 0.0	 0.0	 0.0	 0.0	 0.0	 0.0	 0.0	 0.0	 0.0	 0.0;
	1698	 919.69	 153.778	 525.14	 -88.61	 1.0192	 100.0	 1	 919.69	 229.69	 0.0	 0.0	 0.0	 0.0	 0.0	 0.0	 0.0	 0.0	 0.0	 0.0	 0.0;
	1699	 926.69	 155.361	 526.77	 -86.99	 1.0193	 100.0	 1	 926.69	 236.69	 0.0	 0.0	 0.0	 0.0	 0.0	 0.0	 0.0	 0.0	 0.0	 0.0	 0.0;
	1700	 941.69	 158.795	 530.29	 -83.48	 1.01953	 100.0	 1	 941.69	 251.69	 0.0	 0.0	 0.0	 0.0	 0.0	 0.0	 0.0	 0.0	 0.0	 0.0	 0.0;
	1701	 27.482	 8.735	 10.32	 -9.68	 1.0639	 100.0	 1	 32.0	 6.4	 0.0	 0.0	 0.0	 0.0	 0.0	 0.0	 0.0	 0.0	 0.0	 0.0	 0.0;
	1702	 39.88	 19.22	 19.22	 -17.67	 1.04388	 100.0	 1	 39.88	 7.98	 0.0	 0.0	 0.0	 0.0	 0.0	 0.0	 0.0	 0.0	 0.0	 0.0	 0.0;
	1703	 39.88	 19.34	 19.34	 -17.74	 1.04418	 100.0	 1	 39.88	 7.98	 0.0	 0.0	 0.0	 0.0	 0.0	 0.0	 0.0	 0.0	 0.0	 0.0	 0.0;
	1889	 39.88	 19.24	 19.24	 -17.66	 1.04393	 100.0	 1	 39.88	 7.98	 0.0	 0.0	 0.0	 0.0	 0.0	 0.0	 0.0	 0.0	 0.0	 0.0	 0.0;
	1704	 1380.0	 198.3	 398.39	 -396.86	 1.04001	 100.0	 1	 1380.0	 340.0	 0.0	 0.0	 0.0	 0.0	 0.0	 0.0	 0.0	 0.0	 0.0	 0.0	 0.0;
	1705	 1380.0	 216.076	 371.08	 -424.16	 1.04173	 100.0	 1	 1380.0	 340.0	 0.0	 0.0	 0.0	 0.0	 0.0	 0.0	 0.0	 0.0	 0.0	 0.0	 0.0;
	1890	 24.0	 5.35	 5.35	 -2.57	 1.01185	 100.0	 1	 24.0	 4.8	 0.0	 0.0	 0.0	 0.0	 0.0	 0.0	 0.0	 0.0	 0.0	 0.0	 0.0;
	1891	 24.0	 5.48	 5.48	 -2.43	 1.0125	 100.0	 1	 24.0	 4.8	 0.0	 0.0	 0.0	 0.0	 0.0	 0.0	 0.0	 0.0	 0.0	 0.0	 0.0;
	1892	 24.0	 5.0	 5.0	 -2.93	 1.0101	 100.0	 1	 24.0	 4.8	 0.0	 0.0	 0.0	 0.0	 0.0	 0.0	 0.0	 0.0	 0.0	 0.0	 0.0;
	1706	 24.0	 5.29	 5.29	 -2.63	 1.01155	 100.0	 1	 24.0	 4.8	 0.0	 0.0	 0.0	 0.0	 0.0	 0.0	 0.0	 0.0	 0.0	 0.0	 0.0;
	1893	 65.0	 35.48	 35.48	 -24.52	 1.05301	 100.0	 1	 65.0	 13.0	 0.0	 0.0	 0.0	 0.0	 0.0	 0.0	 0.0	 0.0	 0.0	 0.0	 0.0;
	1894	 70.0	 19.0	 19.0	 -25.15	 1.03801	 100.0	 1	 70.0	 14.0	 0.0	 0.0	 0.0	 0.0	 0.0	 0.0	 0.0	 0.0	 0.0	 0.0	 0.0;
	1895	 67.0	 51.66	 51.66	 -38.34	 1.07661	 100.0	 1	 67.0	 13.4	 0.0	 0.0	 0.0	 0.0	 0.0	 0.0	 0.0	 0.0	 0.0	 0.0	 0.0;
	1896	 67.0	 53.39	 53.39	 -36.61	 1.08604	 100.0	 1	 67.0	 13.4	 0.0	 0.0	 0.0	 0.0	 0.0	 0.0	 0.0	 0.0	 0.0	 0.0	 0.0;
	1897	 70.0	 36.87	 36.87	 -23.13	 1.05882	 100.0	 1	 70.0	 14.0	 0.0	 0.0	 0.0	 0.0	 0.0	 0.0	 0.0	 0.0	 0.0	 0.0	 0.0;
	1707	 23.99	 10.0	 10.0	 -4.98	 1.0593	 100.0	 1	 23.99	 4.8	 0.0	 0.0	 0.0	 0.0	 0.0	 0.0	 0.0	 0.0	 0.0	 0.0	 0.0;
	1898	 23.99	 10.17	 10.17	 -4.8	 1.06005	 100.0	 1	 23.99	 4.8	 0.0	 0.0	 0.0	 0.0	 0.0	 0.0	 0.0	 0.0	 0.0	 0.0	 0.0;
	1899	 23.99	 10.25	 10.25	 -4.72	 1.0604	 100.0	 1	 23.99	 4.8	 0.0	 0.0	 0.0	 0.0	 0.0	 0.0	 0.0	 0.0	 0.0	 0.0	 0.0;
	1708	 23.99	 1.81	 1.81	 1.8	 1.02202	 100.0	 1	 23.99	 4.8	 0.0	 0.0	 0.0	 0.0	 0.0	 0.0	 0.0	 0.0	 0.0	 0.0	 0.0;
	1709	 23.99	 10.16	 10.16	 -4.81	 1.06001	 100.0	 1	 23.99	 4.8	 0.0	 0.0	 0.0	 0.0	 0.0	 0.0	 0.0	 0.0	 0.0	 0.0	 0.0;
	1710	 28.98	 12.229	 12.23	 -7.55	 1.07149	 100.0	 1	 28.98	 5.8	 0.0	 0.0	 0.0	 0.0	 0.0	 0.0	 0.0	 0.0	 0.0	 0.0	 0.0;
	1711	 28.98	 12.309	 12.31	 -7.46	 1.07178	 100.0	 1	 28.98	 5.8	 0.0	 0.0	 0.0	 0.0	 0.0	 0.0	 0.0	 0.0	 0.0	 0.0	 0.0;
	1712	 1308.0	 149.341	 615.09	 -439.22	 1.03487	 100.0	 1	 1308.0	 288.0	 0.0	 0.0	 0.0	 0.0	 0.0	 0.0	 0.0	 0.0	 0.0	 0.0	 0.0;
	1713	 1308.0	 180.789	 614.63	 -439.67	 1.03755	 100.0	 1	 1308.0	 288.0	 0.0	 0.0	 0.0	 0.0	 0.0	 0.0	 0.0	 0.0	 0.0	 0.0	 0.0;
	1900	 0.0	 0.0	 10.45	 -9.55	 1.0171	 100.0	 0	 22.0	 4.4	 0.0	 0.0	 0.0	 0.0	 0.0	 0.0	 0.0	 0.0	 0.0	 0.0	 0.0;
	2017	 0.0	 0.0	 10.45	 -9.55	 1.0171	 100.0	 0	 22.0	 4.4	 0.0	 0.0	 0.0	 0.0	 0.0	 0.0	 0.0	 0.0	 0.0	 0.0	 0.0;
	1714	 458.26	 64.644	 255.9	 -84.1	 1.02781	 100.0	 1	 458.26	 89.26	 0.0	 0.0	 0.0	 0.0	 0.0	 0.0	 0.0	 0.0	 0.0	 0.0	 0.0;
	1901	 36.0	 8.037	 10.34	 -16.91	 1.0422	 100.0	 1	 36.0	 7.2	 0.0	 0.0	 0.0	 0.0	 0.0	 0.0	 0.0	 0.0	 0.0	 0.0	 0.0;
...
];

%% generator cost data
%	2	startup	shutdown	n	c(n-1)	...	c0
mpc.gencost = [
	2	 0.0	 0.0	 3	   0.000000	   1.000000	   0.000000;
	2	 0.0	 0.0	 3	   0.000000	   1.000000	   0.000000;
	2	 0.0	 0.0	 3	   0.000000	   1.000000	   0.000000;
	2	 0.0	 0.0	 3	   0.000000	   1.000000	   0.000000;
	2	 0.0	 0.0	 3	   0.000000	   1.000000	   0.000000;
	2	 0.0	 0.0	 3	   0.000000	   1.000000	   0.000000;
	2	 0.0	 0.0	 3	   0.000000	   1.000000	   0.000000;
	2	 0.0	 0.0	 3	   0.000000	   1.000000	   0.000000;
	2	 0.0	 0.0	 3	   0.000000	   1.000000	   0.000000;
	2	 0.0	 0.0	 3	   0.000000	   1.000000	   0.000000;
	2	 0.0	 0.0	 3	   0.000000	   1.000000	   0.000000;
	2	 0.0	 0.0	 3	   0.000000	   1.000000	   0.000000;
	2	 0.0	 0.0	 3	   0.000000	   2.000000	   0.000000;
	2	 0.0	 0.0	 3	   0.000000	   2.000000	   0.000000;
	2	 0.0	 0.0	 3	   0.000000	   1.000000	   0.000000;
	2	 0.0	 0.0	 3	   0.000000	   1.000000	   0.000000;
	2	 0.0	 0.0	 3	   0.000000	   1.000000	   0.000000;
	2	 0.0	 0.0	 3	   0.000000	   1.000000	   0.000000;
	2	 0.0	 0.0	 3	   0.000000	   1.000000	   0.000000;
	2	 0.0	 0.0	 3	   0.000000	   1.000000	   0.000000;
	2	 0.0	 0.0	 3	   0.000000	   1.000000	   0.000000;
	2	 0.0	 0.0	 3	   0.000000	   2.000000	   0.000000;
	2	 0.0	 0.0	 3	   0.000000	   2.000000	   0.000000;
	2	 0.0	 0.0	 3	   0.000000	   2.000000	   0.000000;
	2	 0.0	 0.0	 3	   0.000000	   2.000000	   0.000000;
	2	 0.0	 0.0	 3	   0.000000	   1.000000	   0.000000;
	2	 0.0	 0.0	 3	   0.000000	   1.000000	   0.000000;
	2	 0.0	 0.0	 3	   0.000000	   1.000000	   0.000000;
	2	 0.0	 0.0	 3	   0.000000	   1.000000	   0.000000;
	2	 0.0	 0.0	 3	   0.000000	   1.000000	   0.000000;
	2	 0.0	 0.0	 3	   0.000000	   1.000000	   0.000000;
	2	 0.0	 0.0	 3	   0.000000	   1.000000	   0.000000;
	2	 0.0	 0.0	 3	   0.000000	   1.000000	   0.000000;
	2	 0.0	 0.0	 3	   0.000000	   1.000000	   0.000000;
	2	 0.0	 0.0	 3	   0.000000	   2.000000	   0.000000;
	2	 0.0	 0.0	 3	   0.000000	   1.000000	   0.000000;
	2	 0.0	 0.0	 3	   0.000000	   1.000000	   0.000000;
	2	 0.0	 0.0	 3	   0.000000	   1.000000	   0.000000;
	2	 0.0	 0.0	 3	   0.000000	   1.000000	   0.000000;
	2	 0.0	 0.0	 3	   0.000000	   1.000000	   0.000000;
	2	 0.0	 0.0	 3	   0.000000	   1.000000	   0.000000;
	2	 0.0	 0.0	 3	   0.000000	   1.000000	   0.000000;
	2	 0.0	 0.0	 3	   0.000000	   1.000000	   0.000000;
	2	 0.0	 0.0	 3	   0.000000	   1.000000	   0.000000;
	2	 0.0	 0.0	 3	   0.000000	   2.000000	   0.000000;
	2	 0.0	 0.0	 3	   0.000000	   1.000000	   0.000000;
	2	 0.0	 0.0	 3	   0.000000	   1.000000	   0.000000;
	2	 0.0	 0.0	 3	   0.000000	   2.000000	   0.000000;
	2	 0.0	 0.0	 3	   0.000000	   1.000000	   0.000000;
	2	 0.0	 0.0	 3	   0.000000	   1.000000	   0.000000;
	2	 0.0	 0.0	 3	   0.000000	   1.000000	   0.000000;
	2	 0.0	 0.0	 3	   0.000000	   1.000000	   0.000000;
	2	 0.0	 0.0	 3	   0.000000	   1.000000	   0.000000;
	2	 0.0	 0.0	 3	   0.000000	   1.000000	   0.000000;
	2	 0.0	 0.0	 3	   0.000000	   1.000000	   0.000000;
	2	 0.0	 0.0	 3	   0.000000	   1.000000	   0.000000;
	2	 0.0	 0.0	 3	   0.000000	   1.000000	   0.000000;
	2	 0.0	 0.0	 3	   0.000000	   1.000000	   0.000000;
	2	 0.0	 0.0	 3	   0.000000	   1.000000	   0.000000;
	2	 0.0	 0.0	 3	   0.000000	   1.000000	   0.000000;
	2	 0.0	 0.0	 3	   0.000000	   1.000000	   0.000000;
	2	 0.0	 0.0	 3	   0.000000	   1.000000	   0.000000;
	2	 0.0	 0.0	 3	   0.000000	   1.000000	   0.000000;
	2	 0.0	 0.0	 3	   0.000000	   1.000000	   0.000000;
	2	 0.0	 0.0	 3	   0.000000	   1.000000	   0.000000;
	2	 0.0	 0.0	 3	   0.000000	   1.000000	   0.000000;
	2	 0.0	 0.0	 3	   0.000000	   1.000000	   0.000000;
	2	 0.0	 0.0	 3	   0.000000	   1.000000	   0.000000;
	2	 0.0	 0.0	 3	   0.000000	   1.000000	   0.000000;
	2	 0.0	 0.0	 3	   0.000000	   1.000000	   0.000000;
	2	 0.0	 0.0	 3	   0.000000	   1.000000	   0.000000;
	2	 0.0	 0.0	 3	   0.000000	   1.000000	   0.000000;
	2	 0.0	 0.0	 3	   0.000000	   1.000000	   0.000000;
	2	 0.0	 0.0	 3	   0.000000	   1.000000	   0.000000;
	2	 0.0	 0.0	 3	   0.000000	   1.000000	   0.000000;
	2	 0.0	 0.0	 3	   0.000000	   1.000000	   0.000000;
	2	 0.0	 0.0	 3	   0.000000	   1.000000	   0.000000;
	2	 0.0	 0.0	 3	   0.000000	   1.000000	   0.000000;
	2	 0.0	 0.0	 3	   0.000000	   1.000000	   0.000000;
	2	 0.0	 0.0	 3	   0.000000	   1.000000	   0.000000;
	2	 0.0	 0.0	 3	   0.000000	   1.000000	   0.000000;
	2	 0.0	 0.0	 3	   0.000000	   1.000000	   0.000000;
	2	 0.0	 0.0	 3	   0.000000	   1.000000	   0.000000;
	2	 0.0	 0.0	 3	   0.000000	   1.000000	   0.000000;
	2	 0.0	 0.0	 3	   0.000000	   1.000000	   0.000000;
	2	 0.0	 0.0	 3	   0.000000	   1.000000	   0.000000;
	2	 0.0	 0.0	 3	   0.000000	   1.000000	   0.000000;
	2	 0.0	 0.0	 3	   0.000000	   1.000000	   0.000000;
	2	 0.0	 0.0	 3	   0.000000	   1.000000	   0.000000;
	2	 0.0	 0.0	 3	   0.000000	   1.000000	   0.000000;
	2	 0.0	 0.0	 3	   0.000000	   1.000000	   0.000000;
	2	 0.0	 0.0	 3	   0.000000	   1.000000	   0.000000;
	2	 0.0	 0.0	 3	   0.000000	   1.000000	   0.000000;
	2	 0.0	 0.0	 3	   0.000000	   1.000000	   0.000000;
	2	 0.0	 0.0	 3	   0.000000	   1.000000	   0.000000;
	2	 0.0	 0.0	 3	   0.000000	   1.000000	   0.000000;
	2	 0.0	 0.0	 3	   0.000000	   1.000000	   0.000000;
	2	 0.0	 0.0	 3	   0.000000	   1.000000	   0.000000;
	2	 0.0	 0.0	 3	   0.000000	   1.000000	   0.000000;
	2	 0.0	 0.0	 3	   0.000000	   1.000000	   0.000000;
	2	 0.0	 0.0	 3	   0.000000	   1.000000	   0.000000;
	2	 0.0	 0.0	 3	   0.000000	   1.000000	   0.000000;
	2	 0.0	 0.0	 3	   0.000000	   1.000000	   0.000000;
	2	 0.0	 0.0	 3	   0.000000	   1.000000	   0.000000;
	2	 0.0	 0.0	 3	   0.000000	   1.000000	   0.000000;
	2	 0.0	 0.0	 3	   0.000000	   1.000000	   0.000000;
	2	 0.0	 0.0	 3	   0.000000	   1.000000	   0.000000;
	2	 0.0	 0.0	 3	   0.000000	   1.000000	   0.000000;
	2	 0.0	 0.0	 3	   0.000000	   1.000000	   0.000000;
	2	 0.0	 0.0	 3	   0.000000	   1.000000	   0.000000;
	2	 0.0	 0.0	 3	   0.000000	   1.000000	   0.000000;
	2	 0.0	 0.0	 3	   0.000000	   1.000000	   0.000000;
	2	 0.0	 0.0	 3	   0.000000	   1.000000	   0.000000;
	2	 0.0	 0.0	 3	   0.000000	   1.000000	   0.000000;
	2	 0.0	 0.0	 3	   0.000000	   1.000000	   0.000000;
	2	 0.0	 0.0	 3	   0.000000	   1.000000	   0.000000;
	2	 0.0	 0.0	 3	   0.000000	   1.000000	   0.000000;
	2	 0.0	 0.0	 3	   0.000000	   1.000000	   0.000000;
	2	 0.0	 0.0	 3	   0.000000	   1.000000	   0.000000;
	2	 0.0	 0.0	 3	   0.000000	   1.000000	   0.000000;
	2	 0.0	 0.0	 3	   0.000000	   1.000000	   0.000000;
	2	 0.0	 0.0	 3	   0.000000	   1.000000	   0.000000;
	2	 0.0	 0.0	 3	   0.000000	   1.000000	   0.000000;
	2	 0.0	 0.0	 3	   0.000000	   1.000000	   0.000000;
	2	 0.0	 0.0	 3	   0.000000	   2.000000	   0.000000;
	2	 0.0	 0.0	 3	   0.000000	   2.000000	   0.000000;
	2	 0.0	 0.0	 3	   0.000000	   1.000000	   0.000000;
	2	 0.0	 0.0	 3	   0.000000	   1.000000	   0.000000;
	2	 0.0	 0.0	 3	   0.000000	   1.000000	   0.000000;
	2	 0.0	 0.0	 3	   0.000000	   1.000000	   0.000000;
	2	 0.0	 0.0	 3	   0.000000	   1.000000	   0.000000;
	2	 0.0	 0.0	 3	   0.000000	   1.000000	   0.000000;
	2	 0.0	 0.0	 3	   0.000000	   1.000000	   0.000000;
	2	 0.0	 0.0	 3	   0.000000	   1.000000	   0.000000;
	2	 0.0	 0.0	 3	   0.000000	   1.000000	   0.000000;
	2	 0.0	 0.0	 3	   0.000000	   1.000000	   0.000000;
	2	 0.0	 0.0	 3	   0.000000	   1.000000	   0.000000;
	2	 0.0	 0.0	 3	   0.000000	   1.000000	   0.000000;
	2	 0.0	 0.0	 3	   0.000000	   1.000000	   0.000000;
	2	 0.0	 0.0	 3	   0.000000	   1.000000	   0.000000;
	2	 0.0	 0.0	 3	   0.000000	   1.000000	   0.000000;
	2	 0.0	 0.0	 3	   0.000000	   1.000000	   0.000000;
	2	 0.0	 0.0	 3	   0.000000	   1.000000	   0.000000;
	2	 0.0	 0.0	 3	   0.000000	   1.000000	   0.000000;
	2	 0.0	 0.0	 3	   0.000000	   1.000000	   0.000000;
	2	 0.0	 0.0	 3	   0.000000	   1.000000	   0.000000;
	2	 0.0	 0.0	 3	   0.000000	   2.000000	   0.000000;
	2	 0.0	 0.0	 3	   0.000000	   2.000000	   0.000000;
	2	 0.0	 0.0	 3	   0.000000	   1.000000	   0.000000;
	2	 0.0	 0.0	 3	   0.000000	   1.000000	   0.000000;
	2	 0.0	 0.0	 3	   0.000000	   1.000000	   0.000000;
	2	 0.0	 0.0	 3	   0.000000	   1.000000	   0.000000;
	2	 0.0	 0.0	 3	   0.000000	   1.000000	   0.000000;
	2	 0.0	 0.0	 3	   0.000000	   1.000000	   0.000000;
	2	 0.0	 0.0	 3	   0.000000	   1.000000	   0.000000;
	2	 0.0	 0.0	 3	   0.000000	   1.000000	   0.000000;
	2	 0.0	 0.0	 3	   0.000000	   1.000000	   0.000000;
	2	 0.0	 0.0	 3	   0.000000	   1.000000	   0.000000;
	2	 0.0	 0.0	 3	   0.000000	   1.000000	   0.000000;
	2	 0.0	 0.0	 3	   0.000000	   1.000000	   0.000000;
	2	 0.0	 0.0	 3	   0.000000	   1.000000	   0.000000;
	2	 0.0	 0.0	 3	   0.000000	   1.000000	   0.000000;
	2	 0.0	 0.0	 3	   0.000000	   1.000000	   0.000000;
	2	 0.0	 0.0	 3	   0.000000	   1.000000	   0.000000;
	2	 0.0	 0.0	 3	   0.000000	   1.000000	   0.000000;
	2	 0.0	 0.0	 3	   0.000000	   1.000000	   0.000000;
	2	 0.0	 0.0	 3	   0.000000	   1.000000	   0.000000;
	2	 0.0	 0.0	 3	   0.000000	   1.000000	   0.000000;
	2	 0.0	 0.0	 3	   0.000000	   1.000000	   0.000000;
	2	 0.0	 0.0	 3	   0.000000	   1.000000	   0.000000;
	2	 0.0	 0.0	 3	   0.000000	   1.000000	   0.000000;
	2	 0.0	 0.0	 3	   0.000000	   1.000000	   0.000000;
	2	 0.0	 0.0	 3	   0.000000	   1.000000	   0.000000;
	2	 0.0	 0.0	 3	   0.000000	   1.000000	   0.000000;
	2	 0.0	 0.0	 3	   0.000000	   1.000000	   0.000000;
	2	 0.0	 0.0	 3	   0.000000	   1.000000	   0.000000;
	2	 0.0	 0.0	 3	   0.000000	   1.000000	   0.000000;
	2	 0.0	 0.0	 3	   0.000000	   1.000000	   0.000000;
	2	 0.0	 0.0	 3	   0.000000	   1.000000	   0.000000;
	2	 0.0	 0.0	 3	   0.000000	   1.000000	   0.000000;
	2	 0.0	 0.0	 3	   0.000000	   1.000000	   0.000000;
	2	 0.0	 0.0	 3	   0.000000	   1.000000	   0.000000;
	2	 0.0	 0.0	 3	   0.000000	   1.000000	   0.000000;
	2	 0.0	 0.0	 3	   0.000000	   1.000000	   0.000000;
	2	 0.0	 0.0	 3	   0.000000	   1.000000	   0.000000;
	2	 0.0	 0.0	 3	   0.000000	   1.000000	   0.000000;
	2	 0.0	 0.0	 3	   0.000000	   1.000000	   0.000000;
	2	 0.0	 0.0	 3	   0.000000	   1.000000	   0.000000;
	2	 0.0	 0.0	 3	   0.000000	   1.000000	   0.000000;
	2	 0.0	 0.0	 3	   0.000000	   1.000000	   0.000000;
	2	 0.0	 0.0	 3	   0.000000	   1.000000	   0.000000;
	2	 0.0	 0.0	 3	   0.000000	   1.000000	   0.000000;
	2	 0.0	 0.0	 3	   0.000000	   1.000000	   0.000000;
	2	 0.0	 0.0	 3	   0.000000	   1.000000	   0.000000;
	2	 0.0	 0.0	 3	   0.000000	   1.000000	   0.000000;
	2	 0.0	 0.0	 3	   0.000000	   1.000000	   0.000000;
	2	 0.0	 0.0	 3	   0.000000	   2.000000	   0.000000;
	2	 0.0	 0.0	 3	   0.000000	   2.000000	   0.000000;
	2	 0.0	 0.0	 3	   0.000000	   1.000000	   0.000000;
	2	 0.0	 0.0	 3	   0.000000	   1.000000	   0.000000;
...
];

%% branch data
%	fbus	tbus	r	x	b	rateA	rateB	rateC	ratio	angle	status	angmin	angmax
mpc.branch = [
	1833	 1	 0.002607	 0.017462	 0.0324	 540.0	 540.0	 540.0	 1.0	 0.0	 1	 -30.0	 30.0;
	29	 2	 2.1e-05	 0.000125	 0.1386	 737.0	 737.0	 737.0	 1.0	 0.0	 1	 -30.0	 30.0;
	675	 2	 0.000145	 0.001877	 0.0635	 2487.0	 2487.0	 2487.0	 1.0	 0.0	 1	 -30.0	 30.0;
	1271	 2	 0.000319	 0.003234	 0.0838	 1841.0	 1841.0	 1841.0	 1.0	 0.0	 1	 -30.0	 30.0;
	30	 2	 2.1e-05	 0.000125	 0.1386	 737.0	 737.0	 737.0	 1.0	 0.0	 1	 -30.0	 30.0;
	142	 3	 0.006163	 0.041067	 0.0759	 446.0	 446.0	 446.0	 1.0	 0.0	 1	 -30.0	 30.0;
	677	 3	 0.000652	 0.004369	 0.0081	 558.0	 558.0	 558.0	 1.0	 0.0	 1	 -30.0	 30.0;
	1048	 4	 0.009733	 0.034089	 0.0185	 905	 905	 905	 1.0	 0.0	 1	 -30.0	 30.0;
	101	 5	 0.000277	 0.002015	 0.003	 288.0	 288.0	 288.0	 1.0	 0.0	 1	 -30.0	 30.0;
	286	 6	 0.00881	 0.033995	 0.0607	 289.0	 289.0	 289.0	 1.0	 0.0	 1	 -30.0	 30.0;
	329	 6	 0.004642	 0.019832	 0.0354	 255.0	 255.0	 255.0	 1.0	 0.0	 1	 -30.0	 30.0;
	737	 5	 0.008861	 0.03506	 0.0623	 288.0	 288.0	 288.0	 1.0	 0.0	 1	 -30.0	 30.0;
	760	 5	 0.006993	 0.032869	 0.0557	 255.0	 255.0	 255.0	 1.0	 0.0	 1	 -30.0	 30.0;
	1330	 6	 0.002173	 0.008731	 0.0152	 3441	 3441	 3441	 1.0	 0.0	 1	 -30.0	 30.0;
	1350	 5	 0.00077	 0.003121	 0.0051	 9629	 9629	 9629	 1.0	 0.0	 1	 -30.0	 30.0;
	1523	 6	 0.004109	 0.016138	 0.0284	 288.0	 288.0	 288.0	 1.0	 0.0	 1	 -30.0	 30.0;
	102	 8	 8.3e-05	 0.000907	 0.0202	 1034.0	 1034.0	 1034.0	 1.0	 0.0	 1	 -30.0	 30.0;
	316	 8	 0.000552	 0.006726	 0.0939	 1786.0	 1786.0	 1786.0	 1.0	 0.0	 1	 -30.0	 30.0;
	623	 8	 0.000512	 0.008012	 0.2455	 2462.0	 2462.0	 2462.0	 1.0	 0.0	 1	 -30.0	 30.0;
	882	 8	 0.001107	 0.00918	 0.1906	 1644.0	 1644.0	 1644.0	 1.0	 0.0	 1	 -30.0	 30.0;
	103	 7	 6.2e-05	 0.000741	 0.0173	 1095.0	 1095.0	 1095.0	 1.0	 0.0	 1	 -30.0	 30.0;
	623	 8	 0.000512	 0.008019	 0.2455	 2462.0	 2462.0	 2462.0	 1.0	 0.0	 1	 -30.0	 30.0;
	623	 7	 0.001153	 0.013123	 0.1841	 1433.0	 1433.0	 1433.0	 1.0	 0.0	 1	 -30.0	 30.0;
	113	 9	 0.000158	 0.000672	 0.0719	 331.0	 331.0	 331.0	 1.0	 0.0	 1	 -30.0	 30.0;
	1134	 9	 4.5e-05	 8.9e-05	 0.002	 268.0	 268.0	 268.0	 1.0	 0.0	 1	 -30.0	 30.0;
	346	 10	 0.00478	 0.028622	 0.0547	 455.0	 455.0	 455.0	 1.0	 0.0	 1	 -30.0	 30.0;
	345	 10	 0.00478	 0.028583	 0.0547	 455.0	 455.0	 455.0	 1.0	 0.0	 1	 -30.0	 30.0;
	106	 11	 0.000257	 0.000514	 0.0294	 53862	 53862	 53862	 1.0	 0.0	 1	 -30.0	 30.0;
	758	 12	 0.000257	 0.002153	 0.2147	 452.0	 452.0	 452.0	 1.0	 0.0	 1	 -30.0	 30.0;
	962	 12	 0.000277	 0.000869	 0.0931	 481.0	 481.0	 481.0	 1.0	 0.0	 1	 -30.0	 30.0;
	955	 13	 0.000237	 0.00083	 0.1863	 268.0	 268.0	 268.0	 1.0	 0.0	 1	 -30.0	 30.0;
	995	 13	 0.000178	 0.000612	 0.1377	 268.0	 268.0	 268.0	 1.0	 0.0	 1	 -30.0	 30.0;
	39	 14	 0.002568	 0.011753	 0.0203	 424.0	 424.0	 424.0	 1.0	 0.0	 1	 -30.0	 30.0;
	1428	 14	 0.002568	 0.011615	 0.0228	 290.0	 290.0	 290.0	 1.0	 0.0	 1	 -30.0	 30.0;
	1054	 16	 9.9e-05	 0.00077	 0.078	 379.0	 379.0	 379.0	 1.0	 0.0	 1	 -30.0	 30.0;
	1054	 15	 9.9e-05	 0.00077	 0.077	 379.0	 379.0	 379.0	 1.0	 0.0	 1	 -30.0	 30.0;
	1428	 17	 0.000514	 0.003437	 0.0061	 290.0	 290.0	 290.0	 1.0	 0.0	 1	 -30.0	 30.0;
	1432	 17	 0.005476	 0.036879	 0.1255	 522.0	 522.0	 522.0	 1.0	 0.0	 1	 -30.0	 30.0;
	39	 17	 0.000514	 0.003457	 0.0061	 418.0	 418.0	 418.0	 1.0	 0.0	 1	 -30.0	 30.0;
	869	 18	 0.003477	 0.01118	 0.0187	 304.0	 304.0	 304.0	 1.0	 0.0	 1	 -30.0	 30.0;
	1089	 18	 0.000612	 0.003121	 0.0152	 270.0	 270.0	 270.0	 1.0	 0.0	 1	 -30.0	 30.0;
	1164	 20	 2.4e-05	 0.000144	 0.0213	 701.0	 701.0	 701.0	 1.0	 0.0	 1	 -30.0	 30.0;
	1164	 19	 7.1e-05	 0.000162	 0.0162	 251.0	 251.0	 251.0	 1.0	 0.0	 1	 -30.0	 30.0;
	972	 21	 0.000257	 0.001165	 0.002	 405.0	 405.0	 405.0	 1.0	 0.0	 1	 -30.0	 30.0;
	476	 22	 0.005709	 0.037926	 0.0688	 492.0	 492.0	 492.0	 1.0	 0.0	 1	 -30.0	 30.0;
	1497	 22	 0.001758	 0.011654	 0.0208	 492.0	 492.0	 492.0	 1.0	 0.0	 1	 -30.0	 30.0;
	69	 23	 0.001383	 0.009462	 0.0172	 463.0	 463.0	 463.0	 1.0	 0.0	 1	 -30.0	 30.0;
	446	 23	 0.00156	 0.006933	 0.0121	 432.0	 432.0	 432.0	 1.0	 0.0	 1	 -30.0	 30.0;
	605	 23	 0.006376	 0.028733	 0.0506	 432.0	 432.0	 432.0	 1.0	 0.0	 1	 -30.0	 30.0;
	987	 23	 0.00158	 0.010627	 0.0192	 481.0	 481.0	 481.0	 1.0	 0.0	 1	 -30.0	 30.0;
	845	 25	 0.001086	 0.003536	 0.3766	 506.0	 506.0	 506.0	 1.0	 0.0	 1	 -30.0	 30.0;
	845	 26	 0.001086	 0.003536	 0.3766	 506.0	 506.0	 506.0	 1.0	 0.0	 1	 -30.0	 30.0;
	123	 27	 0.004741	 0.020385	 0.0334	 1479	 1479	 1479	 1.0	 0.0	 1	 -30.0	 30.0;
	1479	 27	 0.009027	 0.048869	 0.084	 351.0	 351.0	 351.0	 1.0	 0.0	 1	 -30.0	 30.0;
	1500	 27	 0.003516	 0.016257	 0.0273	 311.0	 311.0	 311.0	 1.0	 0.0	 1	 -30.0	 30.0;
	289	 28	 0.000514	 0.003417	 0.0278	 452.0	 452.0	 452.0	 1.0	 0.0	 1	 -30.0	 30.0;
	307	 28	 0.001084	 0.007198	 0.0132	 448.0	 448.0	 448.0	 1.0	 0.0	 1	 -30.0	 30.0;
...